data_image0
_cell_length_a       17.6979
_cell_length_b       17.6261
_cell_length_c       18.8786
_cell_angle_alpha    90
_cell_angle_beta     90.003
_cell_angle_gamma    90

_symmetry_space_group_name_H-M    "P 1"
_symmetry_int_tables_number       1

loop_
  _symmetry_equiv_pos_as_xyz
  'x, y, z'

loop_
  _atom_site_label
  _atom_site_occupancy
  _atom_site_fract_x
  _atom_site_fract_y
  _atom_site_fract_z
  _atom_site_thermal_displace_type
  _atom_site_B_iso_or_equiv
  _atom_site_type_symbol
  S1       1.0000 0.81674  0.02575  0.44529  Biso   1.000  S
  S2       1.0000 0.81722  0.97427  0.05502  Biso   1.000  S
  O1       1.0000 0.33590  0.11110  0.30880  Biso   1.000  O
  O2       1.0000 0.33520  0.11100  0.19130  Biso   1.000  O
  N1       1.0000 0.33540  0.38500  0.25020  Biso   1.000  N
  C1       1.0000 0.33510  0.14210  0.25130  Biso   1.000  C
  C2       1.0000 0.33610  0.22740  0.25030  Biso   1.000  C
  O3       1.0000 0.78390  0.96460  0.49050  Biso   1.000  O
  C3       1.0000 0.05270  0.91350  0.97590  Biso   1.000  C
  H1       1.0000 0.10200  0.89950  0.96070  Biso   1.000  H
  C4       1.0000 0.99760  0.85822  0.98510  Biso   1.000  C
  H2       1.0000 0.00910  0.80640  0.97620  Biso   1.000  H
  C5       1.0000 0.92550  0.87870  0.00730  Biso   1.000  C
  H3       1.0000 0.88780  0.84100  0.01360  Biso   1.000  H
  C6       1.0000 0.90870  0.95450  0.02030  Biso   1.000  C
  C7       1.0000 0.96383  0.00972  0.01109  Biso   1.000  C
  O4       1.0000 0.77420  0.90200  0.05720  Biso   1.000  O
  C8       1.0000 0.68060  0.04100  0.29710  Biso   1.000  C
  H4       1.0000 0.70760  0.07060  0.33070  Biso   1.000  H
  O5       1.0000 0.77380  0.09800  0.44400  Biso   1.000  O
  O6       1.0000 0.78370  0.03640  0.01030  Biso   1.000  O
  C9       1.0000 0.30120  0.34760  0.30410  Biso   1.000  C
  H5       1.0000 0.27600  0.37500  0.34040  Biso   1.000  H
  C10      1.0000 0.68050  0.96170  0.20130  Biso   1.000  C
  H6       1.0000 0.70790  0.93500  0.16600  Biso   1.000  H
  C11      1.0000 0.30180  0.34690  0.19600  Biso   1.000  C
  H7       1.0000 0.27760  0.37450  0.15920  Biso   1.000  H
  C12      1.0000 0.37040  0.34540  0.30020  Biso   1.000  C
  H8       1.0000 0.39580  0.37250  0.33660  Biso   1.000  H
  C13      1.0000 0.60230  0.95880  0.19890  Biso   1.000  C
  H9       1.0000 0.57660  0.92990  0.16400  Biso   1.000  H
  C14      1.0000 0.37020  0.34560  0.19970  Biso   1.000  C
  H10      1.0000 0.39580  0.37290  0.16360  Biso   1.000  H
  C15      1.0000 0.30310  0.26840  0.30580  Biso   1.000  C
  H11      1.0000 0.28200  0.24210  0.34500  Biso   1.000  H
  C16      1.0000 0.06890  0.02900  0.30580  Biso   1.000  C
  H12      1.0000 0.09530  0.04760  0.34610  Biso   1.000  H
  C17      1.0000 0.37140  0.26750  0.19690  Biso   1.000  C
  H13      1.0000 0.39590  0.24190  0.15910  Biso   1.000  H
  C18      1.0000 0.30260  0.26790  0.19410  Biso   1.000  C
  H14      1.0000 0.28070  0.24150  0.15530  Biso   1.000  H
  C19      1.0000 0.37190  0.26790  0.30240  Biso   1.000  C
  H15      1.0000 0.39760  0.24240  0.33970  Biso   1.000  H
  C20      1.0000 0.99100  0.03260  0.30450  Biso   1.000  C
  H16      1.0000 0.96500  0.05770  0.34170  Biso   1.000  H
  C21      1.0000 0.06840  0.97230  0.19300  Biso   1.000  C
  H17      1.0000 0.09420  0.95660  0.15130  Biso   1.000  H
  C22      1.0000 0.99020  0.96860  0.19770  Biso   1.000  C
  H18      1.0000 0.96370  0.94200  0.16170  Biso   1.000  H
  C23      1.0000 0.03680  0.01130  0.51010  Biso   1.000  C
  C24      1.0000 0.05240  0.08940  0.52410  Biso   1.000  C
  H19      1.0000 0.10170  0.10500  0.53740  Biso   1.000  H
  C25      1.0000 0.92370  0.12110  0.49320  Biso   1.000  C
  H20      1.0000 0.88570  0.15860  0.48660  Biso   1.000  H
  C26      1.0000 0.99420  0.14230  0.51780  Biso   1.000  C
  H21      1.0000 0.00320  0.19370  0.53050  Biso   1.000  H
  C27      1.0000 0.90830  0.04730  0.47850  Biso   1.000  C
  C28      1.0000 0.60280  0.04250  0.29900  Biso   1.000  C
  H22      1.0000 0.57700  0.07220  0.33330  Biso   1.000  H
  S3       1.0000 0.31674  0.52575  0.44529  Biso   1.000  S
  S4       1.0000 0.31722  0.47427  0.05502  Biso   1.000  S
  O7       1.0000 0.83590  0.61110  0.30880  Biso   1.000  O
  O8       1.0000 0.83520  0.61100  0.19130  Biso   1.000  O
  N2       1.0000 0.83540  0.88500  0.25020  Biso   1.000  N
  C29      1.0000 0.83510  0.64210  0.25130  Biso   1.000  C
  C30      1.0000 0.83610  0.72740  0.25030  Biso   1.000  C
  O9       1.0000 0.28390  0.46460  0.49050  Biso   1.000  O
  C31      1.0000 0.55270  0.41350  0.97590  Biso   1.000  C
  H23      1.0000 0.60200  0.39950  0.96070  Biso   1.000  H
  C32      1.0000 0.49760  0.35822  0.98510  Biso   1.000  C
  H24      1.0000 0.50910  0.30640  0.97620  Biso   1.000  H
  C33      1.0000 0.42550  0.37870  0.00730  Biso   1.000  C
  H25      1.0000 0.38780  0.34100  0.01360  Biso   1.000  H
  C34      1.0000 0.40870  0.45450  0.02030  Biso   1.000  C
  C35      1.0000 0.46383  0.50972  0.01109  Biso   1.000  C
  O10      1.0000 0.27420  0.40200  0.05720  Biso   1.000  O
  C36      1.0000 0.18060  0.54100  0.29710  Biso   1.000  C
  H26      1.0000 0.20760  0.57060  0.33070  Biso   1.000  H
  O11      1.0000 0.27380  0.59800  0.44400  Biso   1.000  O
  O12      1.0000 0.28370  0.53640  0.01030  Biso   1.000  O
  C37      1.0000 0.80120  0.84760  0.30410  Biso   1.000  C
  H27      1.0000 0.77600  0.87500  0.34040  Biso   1.000  H
  C38      1.0000 0.18050  0.46170  0.20130  Biso   1.000  C
  H28      1.0000 0.20790  0.43500  0.16600  Biso   1.000  H
  C39      1.0000 0.80180  0.84690  0.19600  Biso   1.000  C
  H29      1.0000 0.77760  0.87450  0.15920  Biso   1.000  H
  C40      1.0000 0.87040  0.84540  0.30020  Biso   1.000  C
  H30      1.0000 0.89580  0.87250  0.33660  Biso   1.000  H
  C41      1.0000 0.10230  0.45880  0.19890  Biso   1.000  C
  H31      1.0000 0.07660  0.42990  0.16400  Biso   1.000  H
  C42      1.0000 0.87020  0.84560  0.19970  Biso   1.000  C
  H32      1.0000 0.89580  0.87290  0.16360  Biso   1.000  H
  C43      1.0000 0.80310  0.76840  0.30580  Biso   1.000  C
  H33      1.0000 0.78200  0.74210  0.34500  Biso   1.000  H
  C44      1.0000 0.56890  0.52900  0.30580  Biso   1.000  C
  H34      1.0000 0.59530  0.54760  0.34610  Biso   1.000  H
  C45      1.0000 0.87140  0.76750  0.19690  Biso   1.000  C
  H35      1.0000 0.89590  0.74190  0.15910  Biso   1.000  H
  C46      1.0000 0.80260  0.76790  0.19410  Biso   1.000  C
  H36      1.0000 0.78070  0.74150  0.15530  Biso   1.000  H
  C47      1.0000 0.87190  0.76790  0.30240  Biso   1.000  C
  H37      1.0000 0.89760  0.74240  0.33970  Biso   1.000  H
  C48      1.0000 0.49100  0.53260  0.30450  Biso   1.000  C
  H38      1.0000 0.46500  0.55770  0.34170  Biso   1.000  H
  C49      1.0000 0.56840  0.47230  0.19300  Biso   1.000  C
  H39      1.0000 0.59420  0.45660  0.15130  Biso   1.000  H
  C50      1.0000 0.49020  0.46860  0.19770  Biso   1.000  C
  H40      1.0000 0.46370  0.44200  0.16170  Biso   1.000  H
  C51      1.0000 0.53680  0.51130  0.51010  Biso   1.000  C
  C52      1.0000 0.55240  0.58940  0.52410  Biso   1.000  C
  H41      1.0000 0.60170  0.60500  0.53740  Biso   1.000  H
  C53      1.0000 0.42370  0.62110  0.49320  Biso   1.000  C
  H42      1.0000 0.38570  0.65860  0.48660  Biso   1.000  H
  C54      1.0000 0.49420  0.64230  0.51780  Biso   1.000  C
  H43      1.0000 0.50320  0.69370  0.53050  Biso   1.000  H
  C55      1.0000 0.40830  0.54730  0.47850  Biso   1.000  C
  C56      1.0000 0.10280  0.54250  0.29900  Biso   1.000  C
  H44      1.0000 0.07700  0.57220  0.33330  Biso   1.000  H
  S5       1.0000 0.18326  0.02575  0.55471  Biso   1.000  S
  S6       1.0000 0.18278  0.97427  0.94498  Biso   1.000  S
  O13      1.0000 0.66410  0.11110  0.69120  Biso   1.000  O
  O14      1.0000 0.66480  0.11100  0.80870  Biso   1.000  O
  N3       1.0000 0.66460  0.38500  0.74980  Biso   1.000  N
  C57      1.0000 0.66490  0.14210  0.74870  Biso   1.000  C
  C58      1.0000 0.66390  0.22740  0.74970  Biso   1.000  C
  O15      1.0000 0.21610  0.96460  0.50950  Biso   1.000  O
  C59      1.0000 0.94730  0.91350  0.02410  Biso   1.000  C
  H45      1.0000 0.89800  0.89950  0.03930  Biso   1.000  H
  C60      1.0000 0.00240  0.85822  0.01490  Biso   1.000  C
  H46      1.0000 0.99090  0.80640  0.02380  Biso   1.000  H
  C61      1.0000 0.07450  0.87870  0.99270  Biso   1.000  C
  H47      1.0000 0.11220  0.84100  0.98640  Biso   1.000  H
  C62      1.0000 0.09130  0.95450  0.97970  Biso   1.000  C
  C63      1.0000 0.03617  0.00972  0.98891  Biso   1.000  C
  O16      1.0000 0.22580  0.90200  0.94280  Biso   1.000  O
  C64      1.0000 0.31940  0.04100  0.70290  Biso   1.000  C
  H48      1.0000 0.29240  0.07060  0.66930  Biso   1.000  H
  O17      1.0000 0.22620  0.09800  0.55600  Biso   1.000  O
  O18      1.0000 0.21630  0.03640  0.98970  Biso   1.000  O
  C65      1.0000 0.69880  0.34760  0.69590  Biso   1.000  C
  H49      1.0000 0.72400  0.37500  0.65960  Biso   1.000  H
  C66      1.0000 0.31950  0.96170  0.79870  Biso   1.000  C
  H50      1.0000 0.29210  0.93500  0.83400  Biso   1.000  H
  C67      1.0000 0.69820  0.34690  0.80400  Biso   1.000  C
  H51      1.0000 0.72240  0.37450  0.84080  Biso   1.000  H
  C68      1.0000 0.62960  0.34540  0.69980  Biso   1.000  C
  H52      1.0000 0.60420  0.37250  0.66340  Biso   1.000  H
  C69      1.0000 0.39770  0.95880  0.80110  Biso   1.000  C
  H53      1.0000 0.42340  0.92990  0.83600  Biso   1.000  H
  C70      1.0000 0.62980  0.34560  0.80030  Biso   1.000  C
  H54      1.0000 0.60420  0.37290  0.83640  Biso   1.000  H
  C71      1.0000 0.69690  0.26840  0.69420  Biso   1.000  C
  H55      1.0000 0.71800  0.24210  0.65500  Biso   1.000  H
  C72      1.0000 0.93110  0.02900  0.69420  Biso   1.000  C
  H56      1.0000 0.90470  0.04760  0.65390  Biso   1.000  H
  C73      1.0000 0.62860  0.26750  0.80310  Biso   1.000  C
  H57      1.0000 0.60410  0.24190  0.84090  Biso   1.000  H
  C74      1.0000 0.69740  0.26790  0.80590  Biso   1.000  C
  H58      1.0000 0.71930  0.24150  0.84470  Biso   1.000  H
  C75      1.0000 0.62810  0.26790  0.69760  Biso   1.000  C
  H59      1.0000 0.60240  0.24240  0.66030  Biso   1.000  H
  C76      1.0000 0.00900  0.03260  0.69550  Biso   1.000  C
  H60      1.0000 0.03500  0.05770  0.65830  Biso   1.000  H
  C77      1.0000 0.93160  0.97230  0.80700  Biso   1.000  C
  H61      1.0000 0.90580  0.95660  0.84870  Biso   1.000  H
  C78      1.0000 0.00980  0.96860  0.80230  Biso   1.000  C
  H62      1.0000 0.03630  0.94200  0.83830  Biso   1.000  H
  C79      1.0000 0.96320  0.01130  0.48990  Biso   1.000  C
  C80      1.0000 0.94760  0.08940  0.47590  Biso   1.000  C
  H63      1.0000 0.89830  0.10500  0.46260  Biso   1.000  H
  C81      1.0000 0.07630  0.12110  0.50680  Biso   1.000  C
  H64      1.0000 0.11430  0.15860  0.51340  Biso   1.000  H
  C82      1.0000 0.00580  0.14230  0.48220  Biso   1.000  C
  H65      1.0000 0.99680  0.19370  0.46950  Biso   1.000  H
  C83      1.0000 0.09170  0.04730  0.52150  Biso   1.000  C
  C84      1.0000 0.39720  0.04250  0.70100  Biso   1.000  C
  H66      1.0000 0.42300  0.07220  0.66670  Biso   1.000  H
  S7       1.0000 0.68326  0.52575  0.55471  Biso   1.000  S
  S8       1.0000 0.68278  0.47427  0.94498  Biso   1.000  S
  O19      1.0000 0.16410  0.61110  0.69120  Biso   1.000  O
  O20      1.0000 0.16480  0.61100  0.80870  Biso   1.000  O
  N4       1.0000 0.16460  0.88500  0.74980  Biso   1.000  N
  C85      1.0000 0.16490  0.64210  0.74870  Biso   1.000  C
  C86      1.0000 0.16390  0.72740  0.74970  Biso   1.000  C
  O21      1.0000 0.71610  0.46460  0.50950  Biso   1.000  O
  C87      1.0000 0.44730  0.41350  0.02410  Biso   1.000  C
  H67      1.0000 0.39800  0.39950  0.03930  Biso   1.000  H
  C88      1.0000 0.50240  0.35822  0.01490  Biso   1.000  C
  H68      1.0000 0.49090  0.30640  0.02380  Biso   1.000  H
  C89      1.0000 0.57450  0.37870  0.99270  Biso   1.000  C
  H69      1.0000 0.61220  0.34100  0.98640  Biso   1.000  H
  C90      1.0000 0.59130  0.45450  0.97970  Biso   1.000  C
  C91      1.0000 0.53617  0.50972  0.98891  Biso   1.000  C
  O22      1.0000 0.72580  0.40200  0.94280  Biso   1.000  O
  C92      1.0000 0.81940  0.54100  0.70290  Biso   1.000  C
  H70      1.0000 0.79240  0.57060  0.66930  Biso   1.000  H
  O23      1.0000 0.72620  0.59800  0.55600  Biso   1.000  O
  O24      1.0000 0.71630  0.53640  0.98970  Biso   1.000  O
  C93      1.0000 0.19880  0.84760  0.69590  Biso   1.000  C
  H71      1.0000 0.22400  0.87500  0.65960  Biso   1.000  H
  C94      1.0000 0.81950  0.46170  0.79870  Biso   1.000  C
  H72      1.0000 0.79210  0.43500  0.83400  Biso   1.000  H
  C95      1.0000 0.19820  0.84690  0.80400  Biso   1.000  C
  H73      1.0000 0.22240  0.87450  0.84080  Biso   1.000  H
  C96      1.0000 0.12960  0.84540  0.69980  Biso   1.000  C
  H74      1.0000 0.10420  0.87250  0.66340  Biso   1.000  H
  C97      1.0000 0.89770  0.45880  0.80110  Biso   1.000  C
  H75      1.0000 0.92340  0.42990  0.83600  Biso   1.000  H
  C98      1.0000 0.12980  0.84560  0.80030  Biso   1.000  C
  H76      1.0000 0.10420  0.87290  0.83640  Biso   1.000  H
  C99      1.0000 0.19690  0.76840  0.69420  Biso   1.000  C
  H77      1.0000 0.21800  0.74210  0.65500  Biso   1.000  H
  C100     1.0000 0.43110  0.52900  0.69420  Biso   1.000  C
  H78      1.0000 0.40470  0.54760  0.65390  Biso   1.000  H
  C101     1.0000 0.12860  0.76750  0.80310  Biso   1.000  C
  H79      1.0000 0.10410  0.74190  0.84090  Biso   1.000  H
  C102     1.0000 0.19740  0.76790  0.80590  Biso   1.000  C
  H80      1.0000 0.21930  0.74150  0.84470  Biso   1.000  H
  C103     1.0000 0.12810  0.76790  0.69760  Biso   1.000  C
  H81      1.0000 0.10240  0.74240  0.66030  Biso   1.000  H
  C104     1.0000 0.50900  0.53260  0.69550  Biso   1.000  C
  H82      1.0000 0.53500  0.55770  0.65830  Biso   1.000  H
  C105     1.0000 0.43160  0.47230  0.80700  Biso   1.000  C
  H83      1.0000 0.40580  0.45660  0.84870  Biso   1.000  H
  C106     1.0000 0.50980  0.46860  0.80230  Biso   1.000  C
  H84      1.0000 0.53630  0.44200  0.83830  Biso   1.000  H
  C107     1.0000 0.46320  0.51130  0.48990  Biso   1.000  C
  C108     1.0000 0.44760  0.58940  0.47590  Biso   1.000  C
  H85      1.0000 0.39830  0.60500  0.46260  Biso   1.000  H
  C109     1.0000 0.57630  0.62110  0.50680  Biso   1.000  C
  H86      1.0000 0.61430  0.65860  0.51340  Biso   1.000  H
  C110     1.0000 0.50580  0.64230  0.48220  Biso   1.000  C
  H87      1.0000 0.49680  0.69370  0.46950  Biso   1.000  H
  C111     1.0000 0.59170  0.54730  0.52150  Biso   1.000  C
  C112     1.0000 0.89720  0.54250  0.70100  Biso   1.000  C
  H88      1.0000 0.92300  0.57220  0.66670  Biso   1.000  H
  S9       1.0000 0.18326  0.97425  0.55471  Biso   1.000  S
  S10      1.0000 0.18278  0.02573  0.94498  Biso   1.000  S
  O25      1.0000 0.66410  0.88890  0.69120  Biso   1.000  O
  O26      1.0000 0.66480  0.88900  0.80870  Biso   1.000  O
  N5       1.0000 0.66460  0.61500  0.74980  Biso   1.000  N
  C113     1.0000 0.66490  0.85790  0.74870  Biso   1.000  C
  C114     1.0000 0.66390  0.77260  0.74970  Biso   1.000  C
  O27      1.0000 0.21610  0.03540  0.50950  Biso   1.000  O
  C115     1.0000 0.94730  0.08650  0.02410  Biso   1.000  C
  H89      1.0000 0.89800  0.10050  0.03930  Biso   1.000  H
  C116     1.0000 0.00240  0.14178  0.01490  Biso   1.000  C
  H90      1.0000 0.99090  0.19360  0.02380  Biso   1.000  H
  C117     1.0000 0.07450  0.12130  0.99270  Biso   1.000  C
  H91      1.0000 0.11220  0.15900  0.98640  Biso   1.000  H
  C118     1.0000 0.09130  0.04550  0.97970  Biso   1.000  C
  C119     1.0000 0.03617  0.99028  0.98891  Biso   1.000  C
  O28      1.0000 0.22580  0.09800  0.94280  Biso   1.000  O
  C120     1.0000 0.31940  0.95900  0.70290  Biso   1.000  C
  H92      1.0000 0.29240  0.92940  0.66930  Biso   1.000  H
  O29      1.0000 0.22620  0.90200  0.55600  Biso   1.000  O
  O30      1.0000 0.21630  0.96360  0.98970  Biso   1.000  O
  C121     1.0000 0.69880  0.65240  0.69590  Biso   1.000  C
  H93      1.0000 0.72400  0.62500  0.65960  Biso   1.000  H
  C122     1.0000 0.31950  0.03830  0.79870  Biso   1.000  C
  H94      1.0000 0.29210  0.06500  0.83400  Biso   1.000  H
  C123     1.0000 0.69820  0.65310  0.80400  Biso   1.000  C
  H95      1.0000 0.72240  0.62550  0.84080  Biso   1.000  H
  C124     1.0000 0.62960  0.65460  0.69980  Biso   1.000  C
  H96      1.0000 0.60420  0.62750  0.66340  Biso   1.000  H
  C125     1.0000 0.39770  0.04120  0.80110  Biso   1.000  C
  H97      1.0000 0.42340  0.07010  0.83600  Biso   1.000  H
  C126     1.0000 0.62980  0.65440  0.80030  Biso   1.000  C
  H98      1.0000 0.60420  0.62710  0.83640  Biso   1.000  H
  C127     1.0000 0.69690  0.73160  0.69420  Biso   1.000  C
  H99      1.0000 0.71800  0.75790  0.65500  Biso   1.000  H
  C128     1.0000 0.93110  0.97100  0.69420  Biso   1.000  C
  H100     1.0000 0.90470  0.95240  0.65390  Biso   1.000  H
  C129     1.0000 0.62860  0.73250  0.80310  Biso   1.000  C
  H101     1.0000 0.60410  0.75810  0.84090  Biso   1.000  H
  C130     1.0000 0.69740  0.73210  0.80590  Biso   1.000  C
  H102     1.0000 0.71930  0.75850  0.84470  Biso   1.000  H
  C131     1.0000 0.62810  0.73210  0.69760  Biso   1.000  C
  H103     1.0000 0.60240  0.75760  0.66030  Biso   1.000  H
  C132     1.0000 0.00900  0.96740  0.69550  Biso   1.000  C
  H104     1.0000 0.03500  0.94230  0.65830  Biso   1.000  H
  C133     1.0000 0.93160  0.02770  0.80700  Biso   1.000  C
  H105     1.0000 0.90580  0.04340  0.84870  Biso   1.000  H
  C134     1.0000 0.00980  0.03140  0.80230  Biso   1.000  C
  H106     1.0000 0.03630  0.05800  0.83830  Biso   1.000  H
  C135     1.0000 0.96320  0.98870  0.48990  Biso   1.000  C
  C136     1.0000 0.94760  0.91060  0.47590  Biso   1.000  C
  H107     1.0000 0.89830  0.89500  0.46260  Biso   1.000  H
  C137     1.0000 0.07630  0.87890  0.50680  Biso   1.000  C
  H108     1.0000 0.11430  0.84140  0.51340  Biso   1.000  H
  C138     1.0000 0.00580  0.85770  0.48220  Biso   1.000  C
  H109     1.0000 0.99680  0.80630  0.46950  Biso   1.000  H
  C139     1.0000 0.09170  0.95270  0.52150  Biso   1.000  C
  C140     1.0000 0.39720  0.95750  0.70100  Biso   1.000  C
  H110     1.0000 0.42300  0.92780  0.66670  Biso   1.000  H
  S11      1.0000 0.68326  0.47425  0.55471  Biso   1.000  S
  S12      1.0000 0.68278  0.52573  0.94498  Biso   1.000  S
  O31      1.0000 0.16410  0.38890  0.69120  Biso   1.000  O
  O32      1.0000 0.16480  0.38900  0.80870  Biso   1.000  O
  N6       1.0000 0.16460  0.11500  0.74980  Biso   1.000  N
  C141     1.0000 0.16490  0.35790  0.74870  Biso   1.000  C
  C142     1.0000 0.16390  0.27260  0.74970  Biso   1.000  C
  O33      1.0000 0.71610  0.53540  0.50950  Biso   1.000  O
  C143     1.0000 0.44730  0.58650  0.02410  Biso   1.000  C
  H111     1.0000 0.39800  0.60050  0.03930  Biso   1.000  H
  C144     1.0000 0.50240  0.64178  0.01490  Biso   1.000  C
  H112     1.0000 0.49090  0.69360  0.02380  Biso   1.000  H
  C145     1.0000 0.57450  0.62130  0.99270  Biso   1.000  C
  H113     1.0000 0.61220  0.65900  0.98640  Biso   1.000  H
  C146     1.0000 0.59130  0.54550  0.97970  Biso   1.000  C
  C147     1.0000 0.53617  0.49028  0.98891  Biso   1.000  C
  O34      1.0000 0.72580  0.59800  0.94280  Biso   1.000  O
  C148     1.0000 0.81940  0.45900  0.70290  Biso   1.000  C
  H114     1.0000 0.79240  0.42940  0.66930  Biso   1.000  H
  O35      1.0000 0.72620  0.40200  0.55600  Biso   1.000  O
  O36      1.0000 0.71630  0.46360  0.98970  Biso   1.000  O
  C149     1.0000 0.19880  0.15240  0.69590  Biso   1.000  C
  H115     1.0000 0.22400  0.12500  0.65960  Biso   1.000  H
  C150     1.0000 0.81950  0.53830  0.79870  Biso   1.000  C
  H116     1.0000 0.79210  0.56500  0.83400  Biso   1.000  H
  C151     1.0000 0.19820  0.15310  0.80400  Biso   1.000  C
  H117     1.0000 0.22240  0.12550  0.84080  Biso   1.000  H
  C152     1.0000 0.12960  0.15460  0.69980  Biso   1.000  C
  H118     1.0000 0.10420  0.12750  0.66340  Biso   1.000  H
  C153     1.0000 0.89770  0.54120  0.80110  Biso   1.000  C
  H119     1.0000 0.92340  0.57010  0.83600  Biso   1.000  H
  C154     1.0000 0.12980  0.15440  0.80030  Biso   1.000  C
  H120     1.0000 0.10420  0.12710  0.83640  Biso   1.000  H
  C155     1.0000 0.19690  0.23160  0.69420  Biso   1.000  C
  H121     1.0000 0.21800  0.25790  0.65500  Biso   1.000  H
  C156     1.0000 0.43110  0.47100  0.69420  Biso   1.000  C
  H122     1.0000 0.40470  0.45240  0.65390  Biso   1.000  H
  C157     1.0000 0.12860  0.23250  0.80310  Biso   1.000  C
  H123     1.0000 0.10410  0.25810  0.84090  Biso   1.000  H
  C158     1.0000 0.19740  0.23210  0.80590  Biso   1.000  C
  H124     1.0000 0.21930  0.25850  0.84470  Biso   1.000  H
  C159     1.0000 0.12810  0.23210  0.69760  Biso   1.000  C
  H125     1.0000 0.10240  0.25760  0.66030  Biso   1.000  H
  C160     1.0000 0.50900  0.46740  0.69550  Biso   1.000  C
  H126     1.0000 0.53500  0.44230  0.65830  Biso   1.000  H
  C161     1.0000 0.43160  0.52770  0.80700  Biso   1.000  C
  H127     1.0000 0.40580  0.54340  0.84870  Biso   1.000  H
  C162     1.0000 0.50980  0.53140  0.80230  Biso   1.000  C
  H128     1.0000 0.53630  0.55800  0.83830  Biso   1.000  H
  C163     1.0000 0.46320  0.48870  0.48990  Biso   1.000  C
  C164     1.0000 0.44760  0.41060  0.47590  Biso   1.000  C
  H129     1.0000 0.39830  0.39500  0.46260  Biso   1.000  H
  C165     1.0000 0.57630  0.37890  0.50680  Biso   1.000  C
  H130     1.0000 0.61430  0.34140  0.51340  Biso   1.000  H
  C166     1.0000 0.50580  0.35770  0.48220  Biso   1.000  C
  H131     1.0000 0.49680  0.30630  0.46950  Biso   1.000  H
  C167     1.0000 0.59170  0.45270  0.52150  Biso   1.000  C
  C168     1.0000 0.89720  0.45750  0.70100  Biso   1.000  C
  H132     1.0000 0.92300  0.42780  0.66670  Biso   1.000  H
  S13      1.0000 0.81674  0.97425  0.44529  Biso   1.000  S
  S14      1.0000 0.81722  0.02573  0.05502  Biso   1.000  S
  O37      1.0000 0.33590  0.88890  0.30880  Biso   1.000  O
  O38      1.0000 0.33520  0.88900  0.19130  Biso   1.000  O
  N7       1.0000 0.33540  0.61500  0.25020  Biso   1.000  N
  C169     1.0000 0.33510  0.85790  0.25130  Biso   1.000  C
  C170     1.0000 0.33610  0.77260  0.25030  Biso   1.000  C
  O39      1.0000 0.78390  0.03540  0.49050  Biso   1.000  O
  C171     1.0000 0.05270  0.08650  0.97590  Biso   1.000  C
  H133     1.0000 0.10200  0.10050  0.96070  Biso   1.000  H
  C172     1.0000 0.99760  0.14178  0.98510  Biso   1.000  C
  H134     1.0000 0.00910  0.19360  0.97620  Biso   1.000  H
  C173     1.0000 0.92550  0.12130  0.00730  Biso   1.000  C
  H135     1.0000 0.88780  0.15900  0.01360  Biso   1.000  H
  C174     1.0000 0.90870  0.04550  0.02030  Biso   1.000  C
  C175     1.0000 0.96383  0.99028  0.01109  Biso   1.000  C
  O40      1.0000 0.77420  0.09800  0.05720  Biso   1.000  O
  C176     1.0000 0.68060  0.95900  0.29710  Biso   1.000  C
  H136     1.0000 0.70760  0.92940  0.33070  Biso   1.000  H
  O41      1.0000 0.77380  0.90200  0.44400  Biso   1.000  O
  O42      1.0000 0.78370  0.96360  0.01030  Biso   1.000  O
  C177     1.0000 0.30120  0.65240  0.30410  Biso   1.000  C
  H137     1.0000 0.27600  0.62500  0.34040  Biso   1.000  H
  C178     1.0000 0.68050  0.03830  0.20130  Biso   1.000  C
  H138     1.0000 0.70790  0.06500  0.16600  Biso   1.000  H
  C179     1.0000 0.30180  0.65310  0.19600  Biso   1.000  C
  H139     1.0000 0.27760  0.62550  0.15920  Biso   1.000  H
  C180     1.0000 0.37040  0.65460  0.30020  Biso   1.000  C
  H140     1.0000 0.39580  0.62750  0.33660  Biso   1.000  H
  C181     1.0000 0.60230  0.04120  0.19890  Biso   1.000  C
  H141     1.0000 0.57660  0.07010  0.16400  Biso   1.000  H
  C182     1.0000 0.37020  0.65440  0.19970  Biso   1.000  C
  H142     1.0000 0.39580  0.62710  0.16360  Biso   1.000  H
  C183     1.0000 0.30310  0.73160  0.30580  Biso   1.000  C
  H143     1.0000 0.28200  0.75790  0.34500  Biso   1.000  H
  C184     1.0000 0.06890  0.97100  0.30580  Biso   1.000  C
  H144     1.0000 0.09530  0.95240  0.34610  Biso   1.000  H
  C185     1.0000 0.37140  0.73250  0.19690  Biso   1.000  C
  H145     1.0000 0.39590  0.75810  0.15910  Biso   1.000  H
  C186     1.0000 0.30260  0.73210  0.19410  Biso   1.000  C
  H146     1.0000 0.28070  0.75850  0.15530  Biso   1.000  H
  C187     1.0000 0.37190  0.73210  0.30240  Biso   1.000  C
  H147     1.0000 0.39760  0.75760  0.33970  Biso   1.000  H
  C188     1.0000 0.99100  0.96740  0.30450  Biso   1.000  C
  H148     1.0000 0.96500  0.94230  0.34170  Biso   1.000  H
  C189     1.0000 0.06840  0.02770  0.19300  Biso   1.000  C
  H149     1.0000 0.09420  0.04340  0.15130  Biso   1.000  H
  C190     1.0000 0.99020  0.03140  0.19770  Biso   1.000  C
  H150     1.0000 0.96370  0.05800  0.16170  Biso   1.000  H
  C191     1.0000 0.03680  0.98870  0.51010  Biso   1.000  C
  C192     1.0000 0.05240  0.91060  0.52410  Biso   1.000  C
  H151     1.0000 0.10170  0.89500  0.53740  Biso   1.000  H
  C193     1.0000 0.92370  0.87890  0.49320  Biso   1.000  C
  H152     1.0000 0.88570  0.84140  0.48660  Biso   1.000  H
  C194     1.0000 0.99420  0.85770  0.51780  Biso   1.000  C
  H153     1.0000 0.00320  0.80630  0.53050  Biso   1.000  H
  C195     1.0000 0.90830  0.95270  0.47850  Biso   1.000  C
  C196     1.0000 0.60280  0.95750  0.29900  Biso   1.000  C
  H154     1.0000 0.57700  0.92780  0.33330  Biso   1.000  H
  S15      1.0000 0.31674  0.47425  0.44529  Biso   1.000  S
  S16      1.0000 0.31722  0.52573  0.05502  Biso   1.000  S
  O43      1.0000 0.83590  0.38890  0.30880  Biso   1.000  O
  O44      1.0000 0.83520  0.38900  0.19130  Biso   1.000  O
  N8       1.0000 0.83540  0.11500  0.25020  Biso   1.000  N
  C197     1.0000 0.83510  0.35790  0.25130  Biso   1.000  C
  C198     1.0000 0.83610  0.27260  0.25030  Biso   1.000  C
  O45      1.0000 0.28390  0.53540  0.49050  Biso   1.000  O
  C199     1.0000 0.55270  0.58650  0.97590  Biso   1.000  C
  H155     1.0000 0.60200  0.60050  0.96070  Biso   1.000  H
  C200     1.0000 0.49760  0.64178  0.98510  Biso   1.000  C
  H156     1.0000 0.50910  0.69360  0.97620  Biso   1.000  H
  C201     1.0000 0.42550  0.62130  0.00730  Biso   1.000  C
  H157     1.0000 0.38780  0.65900  0.01360  Biso   1.000  H
  C202     1.0000 0.40870  0.54550  0.02030  Biso   1.000  C
  C203     1.0000 0.46383  0.49028  0.01109  Biso   1.000  C
  O46      1.0000 0.27420  0.59800  0.05720  Biso   1.000  O
  C204     1.0000 0.18060  0.45900  0.29710  Biso   1.000  C
  H158     1.0000 0.20760  0.42940  0.33070  Biso   1.000  H
  O47      1.0000 0.27380  0.40200  0.44400  Biso   1.000  O
  O48      1.0000 0.28370  0.46360  0.01030  Biso   1.000  O
  C205     1.0000 0.80120  0.15240  0.30410  Biso   1.000  C
  H159     1.0000 0.77600  0.12500  0.34040  Biso   1.000  H
  C206     1.0000 0.18050  0.53830  0.20130  Biso   1.000  C
  H160     1.0000 0.20790  0.56500  0.16600  Biso   1.000  H
  C207     1.0000 0.80180  0.15310  0.19600  Biso   1.000  C
  H161     1.0000 0.77760  0.12550  0.15920  Biso   1.000  H
  C208     1.0000 0.87040  0.15460  0.30020  Biso   1.000  C
  H162     1.0000 0.89580  0.12750  0.33660  Biso   1.000  H
  C209     1.0000 0.10230  0.54120  0.19890  Biso   1.000  C
  H163     1.0000 0.07660  0.57010  0.16400  Biso   1.000  H
  C210     1.0000 0.87020  0.15440  0.19970  Biso   1.000  C
  H164     1.0000 0.89580  0.12710  0.16360  Biso   1.000  H
  C211     1.0000 0.80310  0.23160  0.30580  Biso   1.000  C
  H165     1.0000 0.78200  0.25790  0.34500  Biso   1.000  H
  C212     1.0000 0.56890  0.47100  0.30580  Biso   1.000  C
  H166     1.0000 0.59530  0.45240  0.34610  Biso   1.000  H
  C213     1.0000 0.87140  0.23250  0.19690  Biso   1.000  C
  H167     1.0000 0.89590  0.25810  0.15910  Biso   1.000  H
  C214     1.0000 0.80260  0.23210  0.19410  Biso   1.000  C
  H168     1.0000 0.78070  0.25850  0.15530  Biso   1.000  H
  C215     1.0000 0.87190  0.23210  0.30240  Biso   1.000  C
  H169     1.0000 0.89760  0.25760  0.33970  Biso   1.000  H
  C216     1.0000 0.49100  0.46740  0.30450  Biso   1.000  C
  H170     1.0000 0.46500  0.44230  0.34170  Biso   1.000  H
  C217     1.0000 0.56840  0.52770  0.19300  Biso   1.000  C
  H171     1.0000 0.59420  0.54340  0.15130  Biso   1.000  H
  C218     1.0000 0.49020  0.53140  0.19770  Biso   1.000  C
  H172     1.0000 0.46370  0.55800  0.16170  Biso   1.000  H
  C219     1.0000 0.53680  0.48870  0.51010  Biso   1.000  C
  C220     1.0000 0.55240  0.41060  0.52410  Biso   1.000  C
  H173     1.0000 0.60170  0.39500  0.53740  Biso   1.000  H
  C221     1.0000 0.42370  0.37890  0.49320  Biso   1.000  C
  H174     1.0000 0.38570  0.34140  0.48660  Biso   1.000  H
  C222     1.0000 0.49420  0.35770  0.51780  Biso   1.000  C
  H175     1.0000 0.50320  0.30630  0.53050  Biso   1.000  H
  C223     1.0000 0.40830  0.45270  0.47850  Biso   1.000  C
  C224     1.0000 0.10280  0.45750  0.29900  Biso   1.000  C
  H176     1.0000 0.07700  0.42780  0.33330  Biso   1.000  H
  Cu1      1.0000 0.33593  0.00000  0.17965  Biso   1.000  Cu
  Cu2      1.0000 0.33608  0.00000  0.32051  Biso   1.000  Cu
  Cu3      1.0000 0.83481  0.00000  0.25006  Biso   1.000  Cu
  O49      1.0000 0.83450  0.00000  0.12610  Biso   1.000  O
  O50      1.0000 0.83450  0.00000  0.37430  Biso   1.000  O
  C225     1.0000 0.19310  0.00000  0.25010  Biso   1.000  C
  O51      1.0000 0.44540  0.00000  0.31020  Biso   1.000  O
  O52      1.0000 0.44600  0.00000  0.19050  Biso   1.000  O
  O53      1.0000 0.22480  0.00000  0.30990  Biso   1.000  O
  N9       1.0000 0.72000  0.00000  0.25040  Biso   1.000  N
  O54      1.0000 0.34210  0.00000  0.43300  Biso   1.000  O
  O55      1.0000 0.22490  0.00000  0.19050  Biso   1.000  O
  C226     1.0000 0.56290  0.00000  0.24980  Biso   1.000  C
  N10      1.0000 0.95000  0.00000  0.24970  Biso   1.000  N
  O56      1.0000 0.34150  0.00000  0.06860  Biso   1.000  O
  C227     1.0000 0.47750  0.00000  0.24990  Biso   1.000  C
  C228     1.0000 0.10780  0.00000  0.25150  Biso   1.000  C
  Cu4      1.0000 0.83593  0.50000  0.17965  Biso   1.000  Cu
  Cu5      1.0000 0.83608  0.50000  0.32051  Biso   1.000  Cu
  Cu6      1.0000 0.33481  0.50000  0.25006  Biso   1.000  Cu
  O57      1.0000 0.33450  0.50000  0.12610  Biso   1.000  O
  O58      1.0000 0.33450  0.50000  0.37430  Biso   1.000  O
  C229     1.0000 0.69310  0.50000  0.25010  Biso   1.000  C
  O59      1.0000 0.94540  0.50000  0.31020  Biso   1.000  O
  O60      1.0000 0.94600  0.50000  0.19050  Biso   1.000  O
  O61      1.0000 0.72480  0.50000  0.30990  Biso   1.000  O
  N11      1.0000 0.22000  0.50000  0.25040  Biso   1.000  N
  O62      1.0000 0.84210  0.50000  0.43300  Biso   1.000  O
  O63      1.0000 0.72490  0.50000  0.19050  Biso   1.000  O
  C230     1.0000 0.06290  0.50000  0.24980  Biso   1.000  C
  N12      1.0000 0.45000  0.50000  0.24970  Biso   1.000  N
  O64      1.0000 0.84150  0.50000  0.06860  Biso   1.000  O
  C231     1.0000 0.97750  0.50000  0.24990  Biso   1.000  C
  C232     1.0000 0.60780  0.50000  0.25150  Biso   1.000  C
  Cu7      1.0000 0.66407  0.00000  0.82035  Biso   1.000  Cu
  Cu8      1.0000 0.66392  0.00000  0.67949  Biso   1.000  Cu
  Cu9      1.0000 0.16519  0.00000  0.74994  Biso   1.000  Cu
  O65      1.0000 0.16550  0.00000  0.87390  Biso   1.000  O
  O66      1.0000 0.16550  0.00000  0.62570  Biso   1.000  O
  C233     1.0000 0.80690  0.00000  0.74990  Biso   1.000  C
  O67      1.0000 0.55460  0.00000  0.68980  Biso   1.000  O
  O68      1.0000 0.55400  0.00000  0.80950  Biso   1.000  O
  O69      1.0000 0.77520  0.00000  0.69010  Biso   1.000  O
  N13      1.0000 0.28000  0.00000  0.74960  Biso   1.000  N
  O70      1.0000 0.65790  0.00000  0.56700  Biso   1.000  O
  O71      1.0000 0.77510  0.00000  0.80950  Biso   1.000  O
  C234     1.0000 0.43710  0.00000  0.75020  Biso   1.000  C
  N14      1.0000 0.05000  0.00000  0.75030  Biso   1.000  N
  O72      1.0000 0.65850  0.00000  0.93140  Biso   1.000  O
  C235     1.0000 0.52250  0.00000  0.75010  Biso   1.000  C
  C236     1.0000 0.89220  0.00000  0.74850  Biso   1.000  C
  Cu10     1.0000 0.16407  0.50000  0.82035  Biso   1.000  Cu
  Cu11     1.0000 0.16392  0.50000  0.67949  Biso   1.000  Cu
  Cu12     1.0000 0.66519  0.50000  0.74994  Biso   1.000  Cu
  O73      1.0000 0.66550  0.50000  0.87390  Biso   1.000  O
  O74      1.0000 0.66550  0.50000  0.62570  Biso   1.000  O
  C237     1.0000 0.30690  0.50000  0.74990  Biso   1.000  C
  O75      1.0000 0.05460  0.50000  0.68980  Biso   1.000  O
  O76      1.0000 0.05400  0.50000  0.80950  Biso   1.000  O
  O77      1.0000 0.27520  0.50000  0.69010  Biso   1.000  O
  N15      1.0000 0.78000  0.50000  0.74960  Biso   1.000  N
  O78      1.0000 0.15790  0.50000  0.56700  Biso   1.000  O
  O79      1.0000 0.27510  0.50000  0.80950  Biso   1.000  O
  C238     1.0000 0.93710  0.50000  0.75020  Biso   1.000  C
  N16      1.0000 0.55000  0.50000  0.75030  Biso   1.000  N
  O80      1.0000 0.15850  0.50000  0.93140  Biso   1.000  O
  C239     1.0000 0.02250  0.50000  0.75010  Biso   1.000  C
  C240     1.0000 0.39220  0.50000  0.74850  Biso   1.000  C
