data_image0
_cell_length_a       18.7059
_cell_length_b       18.7059
_cell_length_c       18.7059
_cell_angle_alpha    90
_cell_angle_beta     90
_cell_angle_gamma    90

_symmetry_space_group_name_H-M    "P 1"
_symmetry_int_tables_number       1

loop_
  _symmetry_equiv_pos_as_xyz
  'x, y, z'

loop_
  _atom_site_label
  _atom_site_occupancy
  _atom_site_fract_x
  _atom_site_fract_y
  _atom_site_fract_z
  _atom_site_thermal_displace_type
  _atom_site_B_iso_or_equiv
  _atom_site_type_symbol
  N1       1.0000 0.07344  0.37229  0.57635  Biso   1.000  N
  C1       1.0000 0.12803  0.32884  0.58845  Biso   1.000  C
  C2       1.0000 0.02200  0.19400  0.55620  Biso   1.000  C
  H1       1.0000 0.14030  0.28810  0.56070  Biso   1.000  H
  H2       1.0000 0.01380  0.14640  0.53580  Biso   1.000  H
  H3       1.0000 0.07230  0.19960  0.56850  Biso   1.000  H
  H4       1.0000 0.99250  0.19960  0.59930  Biso   1.000  H
  H5       1.0000 0.03860  0.21730  0.59990  Biso   1.000  H
  H6       1.0000 0.98010  0.16420  0.56720  Biso   1.000  H
  H7       1.0000 0.05990  0.16420  0.53640  Biso   1.000  H
  N2       1.0000 0.41155  0.12803  0.67116  Biso   1.000  N
  N3       1.0000 0.92656  0.62771  0.57635  Biso   1.000  N
  C3       1.0000 0.87197  0.67116  0.58845  Biso   1.000  C
  C4       1.0000 0.97800  0.80600  0.55620  Biso   1.000  C
  H8       1.0000 0.85970  0.71190  0.56070  Biso   1.000  H
  H9       1.0000 0.98620  0.85360  0.53580  Biso   1.000  H
  H10      1.0000 0.92770  0.80040  0.56850  Biso   1.000  H
  H11      1.0000 0.00750  0.80040  0.59930  Biso   1.000  H
  H12      1.0000 0.96140  0.78270  0.59990  Biso   1.000  H
  H13      1.0000 0.01990  0.83580  0.56720  Biso   1.000  H
  H14      1.0000 0.94010  0.83580  0.53640  Biso   1.000  H
  N4       1.0000 0.58845  0.87197  0.67116  Biso   1.000  N
  N5       1.0000 0.92656  0.37229  0.42365  Biso   1.000  N
  C5       1.0000 0.87197  0.32884  0.41155  Biso   1.000  C
  C6       1.0000 0.97800  0.19400  0.44380  Biso   1.000  C
  H15      1.0000 0.85970  0.28810  0.43930  Biso   1.000  H
  H16      1.0000 0.98620  0.14640  0.46420  Biso   1.000  H
  H17      1.0000 0.92770  0.19960  0.43150  Biso   1.000  H
  H18      1.0000 0.00750  0.19960  0.40070  Biso   1.000  H
  H19      1.0000 0.96140  0.21730  0.40010  Biso   1.000  H
  H20      1.0000 0.01990  0.16420  0.43280  Biso   1.000  H
  H21      1.0000 0.94010  0.16420  0.46360  Biso   1.000  H
  N6       1.0000 0.58845  0.12803  0.32884  Biso   1.000  N
  N7       1.0000 0.07344  0.62771  0.42365  Biso   1.000  N
  C7       1.0000 0.12803  0.67116  0.41155  Biso   1.000  C
  C8       1.0000 0.02200  0.80600  0.44380  Biso   1.000  C
  H22      1.0000 0.14030  0.71190  0.43930  Biso   1.000  H
  H23      1.0000 0.01380  0.85360  0.46420  Biso   1.000  H
  H24      1.0000 0.07230  0.80040  0.43150  Biso   1.000  H
  H25      1.0000 0.99250  0.80040  0.40070  Biso   1.000  H
  H26      1.0000 0.03860  0.78270  0.40010  Biso   1.000  H
  H27      1.0000 0.98010  0.83580  0.43280  Biso   1.000  H
  H28      1.0000 0.05990  0.83580  0.46360  Biso   1.000  H
  N8       1.0000 0.41155  0.87197  0.32884  Biso   1.000  N
  N9       1.0000 0.57635  0.07344  0.37229  Biso   1.000  N
  C9       1.0000 0.55620  0.02200  0.19400  Biso   1.000  C
  H29      1.0000 0.56070  0.14030  0.28810  Biso   1.000  H
  H30      1.0000 0.53580  0.01380  0.14640  Biso   1.000  H
  H31      1.0000 0.56850  0.07230  0.19960  Biso   1.000  H
  H32      1.0000 0.59930  0.99250  0.19960  Biso   1.000  H
  H33      1.0000 0.59990  0.03860  0.21730  Biso   1.000  H
  H34      1.0000 0.56720  0.98010  0.16420  Biso   1.000  H
  H35      1.0000 0.53640  0.05990  0.16420  Biso   1.000  H
  N10      1.0000 0.67116  0.41155  0.12803  Biso   1.000  N
  N11      1.0000 0.57635  0.92656  0.62771  Biso   1.000  N
  C10      1.0000 0.55620  0.97800  0.80600  Biso   1.000  C
  H36      1.0000 0.56070  0.85970  0.71190  Biso   1.000  H
  H37      1.0000 0.53580  0.98620  0.85360  Biso   1.000  H
  H38      1.0000 0.56850  0.92770  0.80040  Biso   1.000  H
  H39      1.0000 0.59930  0.00750  0.80040  Biso   1.000  H
  H40      1.0000 0.59990  0.96140  0.78270  Biso   1.000  H
  H41      1.0000 0.56720  0.01990  0.83580  Biso   1.000  H
  H42      1.0000 0.53640  0.94010  0.83580  Biso   1.000  H
  N12      1.0000 0.67116  0.58845  0.87197  Biso   1.000  N
  N13      1.0000 0.42365  0.92656  0.37229  Biso   1.000  N
  C11      1.0000 0.44380  0.97800  0.19400  Biso   1.000  C
  H43      1.0000 0.43930  0.85970  0.28810  Biso   1.000  H
  H44      1.0000 0.46420  0.98620  0.14640  Biso   1.000  H
  H45      1.0000 0.43150  0.92770  0.19960  Biso   1.000  H
  H46      1.0000 0.40070  0.00750  0.19960  Biso   1.000  H
  H47      1.0000 0.40010  0.96140  0.21730  Biso   1.000  H
  H48      1.0000 0.43280  0.01990  0.16420  Biso   1.000  H
  H49      1.0000 0.46360  0.94010  0.16420  Biso   1.000  H
  N14      1.0000 0.32884  0.58845  0.12803  Biso   1.000  N
  N15      1.0000 0.42365  0.07344  0.62771  Biso   1.000  N
  C12      1.0000 0.44380  0.02200  0.80600  Biso   1.000  C
  H50      1.0000 0.43930  0.14030  0.71190  Biso   1.000  H
  H51      1.0000 0.46420  0.01380  0.85360  Biso   1.000  H
  H52      1.0000 0.43150  0.07230  0.80040  Biso   1.000  H
  H53      1.0000 0.40070  0.99250  0.80040  Biso   1.000  H
  H54      1.0000 0.40010  0.03860  0.78270  Biso   1.000  H
  H55      1.0000 0.43280  0.98010  0.83580  Biso   1.000  H
  H56      1.0000 0.46360  0.05990  0.83580  Biso   1.000  H
  N16      1.0000 0.32884  0.41155  0.87197  Biso   1.000  N
  N17      1.0000 0.37229  0.57635  0.07344  Biso   1.000  N
  C13      1.0000 0.19400  0.55620  0.02200  Biso   1.000  C
  H57      1.0000 0.28810  0.56070  0.14030  Biso   1.000  H
  H58      1.0000 0.14640  0.53580  0.01380  Biso   1.000  H
  H59      1.0000 0.19960  0.56850  0.07230  Biso   1.000  H
  H60      1.0000 0.19960  0.59930  0.99250  Biso   1.000  H
  H61      1.0000 0.21730  0.59990  0.03860  Biso   1.000  H
  H62      1.0000 0.16420  0.56720  0.98010  Biso   1.000  H
  H63      1.0000 0.16420  0.53640  0.05990  Biso   1.000  H
  N18      1.0000 0.62771  0.57635  0.92656  Biso   1.000  N
  C14      1.0000 0.80600  0.55620  0.97800  Biso   1.000  C
  H64      1.0000 0.71190  0.56070  0.85970  Biso   1.000  H
  H65      1.0000 0.85360  0.53580  0.98620  Biso   1.000  H
  H66      1.0000 0.80040  0.56850  0.92770  Biso   1.000  H
  H67      1.0000 0.80040  0.59930  0.00750  Biso   1.000  H
  H68      1.0000 0.78270  0.59990  0.96140  Biso   1.000  H
  H69      1.0000 0.83580  0.56720  0.01990  Biso   1.000  H
  H70      1.0000 0.83580  0.53640  0.94010  Biso   1.000  H
  N19      1.0000 0.37229  0.42365  0.92656  Biso   1.000  N
  C15      1.0000 0.19400  0.44380  0.97800  Biso   1.000  C
  H71      1.0000 0.28810  0.43930  0.85970  Biso   1.000  H
  H72      1.0000 0.14640  0.46420  0.98620  Biso   1.000  H
  H73      1.0000 0.19960  0.43150  0.92770  Biso   1.000  H
  H74      1.0000 0.19960  0.40070  0.00750  Biso   1.000  H
  H75      1.0000 0.21730  0.40010  0.96140  Biso   1.000  H
  H76      1.0000 0.16420  0.43280  0.01990  Biso   1.000  H
  H77      1.0000 0.16420  0.46360  0.94010  Biso   1.000  H
  N20      1.0000 0.62771  0.42365  0.07344  Biso   1.000  N
  C16      1.0000 0.80600  0.44380  0.02200  Biso   1.000  C
  H78      1.0000 0.71190  0.43930  0.14030  Biso   1.000  H
  H79      1.0000 0.85360  0.46420  0.01380  Biso   1.000  H
  H80      1.0000 0.80040  0.43150  0.07230  Biso   1.000  H
  H81      1.0000 0.80040  0.40070  0.99250  Biso   1.000  H
  H82      1.0000 0.78270  0.40010  0.03860  Biso   1.000  H
  H83      1.0000 0.83580  0.43280  0.98010  Biso   1.000  H
  H84      1.0000 0.83580  0.46360  0.05990  Biso   1.000  H
  N21      1.0000 0.37229  0.07344  0.42365  Biso   1.000  N
  C17      1.0000 0.32884  0.12803  0.41155  Biso   1.000  C
  C18      1.0000 0.19400  0.02200  0.44380  Biso   1.000  C
  H85      1.0000 0.28810  0.14030  0.43930  Biso   1.000  H
  H86      1.0000 0.14640  0.01380  0.46420  Biso   1.000  H
  H87      1.0000 0.19960  0.07230  0.43150  Biso   1.000  H
  H88      1.0000 0.19960  0.99250  0.40070  Biso   1.000  H
  H89      1.0000 0.21730  0.03860  0.40010  Biso   1.000  H
  H90      1.0000 0.16420  0.98010  0.43280  Biso   1.000  H
  H91      1.0000 0.16420  0.05990  0.46360  Biso   1.000  H
  N22      1.0000 0.12803  0.41155  0.32884  Biso   1.000  N
  N23      1.0000 0.62771  0.92656  0.42365  Biso   1.000  N
  C19      1.0000 0.67116  0.87197  0.41155  Biso   1.000  C
  C20      1.0000 0.80600  0.97800  0.44380  Biso   1.000  C
  H92      1.0000 0.71190  0.85970  0.43930  Biso   1.000  H
  H93      1.0000 0.85360  0.98620  0.46420  Biso   1.000  H
  H94      1.0000 0.80040  0.92770  0.43150  Biso   1.000  H
  H95      1.0000 0.80040  0.00750  0.40070  Biso   1.000  H
  H96      1.0000 0.78270  0.96140  0.40010  Biso   1.000  H
  H97      1.0000 0.83580  0.01990  0.43280  Biso   1.000  H
  H98      1.0000 0.83580  0.94010  0.46360  Biso   1.000  H
  N24      1.0000 0.87197  0.58845  0.32884  Biso   1.000  N
  N25      1.0000 0.37229  0.92656  0.57635  Biso   1.000  N
  C21      1.0000 0.32884  0.87197  0.58845  Biso   1.000  C
  C22      1.0000 0.19400  0.97800  0.55620  Biso   1.000  C
  H99      1.0000 0.28810  0.85970  0.56070  Biso   1.000  H
  H100     1.0000 0.14640  0.98620  0.53580  Biso   1.000  H
  H101     1.0000 0.19960  0.92770  0.56850  Biso   1.000  H
  H102     1.0000 0.19960  0.00750  0.59930  Biso   1.000  H
  H103     1.0000 0.21730  0.96140  0.59990  Biso   1.000  H
  H104     1.0000 0.16420  0.01990  0.56720  Biso   1.000  H
  H105     1.0000 0.16420  0.94010  0.53640  Biso   1.000  H
  N26      1.0000 0.12803  0.58845  0.67116  Biso   1.000  N
  N27      1.0000 0.62771  0.07344  0.57635  Biso   1.000  N
  C23      1.0000 0.67116  0.12803  0.58845  Biso   1.000  C
  C24      1.0000 0.80600  0.02200  0.55620  Biso   1.000  C
  H106     1.0000 0.71190  0.14030  0.56070  Biso   1.000  H
  H107     1.0000 0.85360  0.01380  0.53580  Biso   1.000  H
  H108     1.0000 0.80040  0.07230  0.56850  Biso   1.000  H
  H109     1.0000 0.80040  0.99250  0.59930  Biso   1.000  H
  H110     1.0000 0.78270  0.03860  0.59990  Biso   1.000  H
  H111     1.0000 0.83580  0.98010  0.56720  Biso   1.000  H
  H112     1.0000 0.83580  0.05990  0.53640  Biso   1.000  H
  N28      1.0000 0.87197  0.41155  0.67116  Biso   1.000  N
  N29      1.0000 0.07344  0.57635  0.62771  Biso   1.000  N
  C25      1.0000 0.02200  0.55620  0.80600  Biso   1.000  C
  H113     1.0000 0.14030  0.56070  0.71190  Biso   1.000  H
  H114     1.0000 0.01380  0.53580  0.85360  Biso   1.000  H
  H115     1.0000 0.07230  0.56850  0.80040  Biso   1.000  H
  H116     1.0000 0.99250  0.59930  0.80040  Biso   1.000  H
  H117     1.0000 0.03860  0.59990  0.78270  Biso   1.000  H
  H118     1.0000 0.98010  0.56720  0.83580  Biso   1.000  H
  H119     1.0000 0.05990  0.53640  0.83580  Biso   1.000  H
  N30      1.0000 0.41155  0.67116  0.87197  Biso   1.000  N
  N31      1.0000 0.92656  0.57635  0.37229  Biso   1.000  N
  C26      1.0000 0.97800  0.55620  0.19400  Biso   1.000  C
  H120     1.0000 0.85970  0.56070  0.28810  Biso   1.000  H
  H121     1.0000 0.98620  0.53580  0.14640  Biso   1.000  H
  H122     1.0000 0.92770  0.56850  0.19960  Biso   1.000  H
  H123     1.0000 0.00750  0.59930  0.19960  Biso   1.000  H
  H124     1.0000 0.96140  0.59990  0.21730  Biso   1.000  H
  H125     1.0000 0.01990  0.56720  0.16420  Biso   1.000  H
  H126     1.0000 0.94010  0.53640  0.16420  Biso   1.000  H
  N32      1.0000 0.58845  0.67116  0.12803  Biso   1.000  N
  N33      1.0000 0.92656  0.42365  0.62771  Biso   1.000  N
  C27      1.0000 0.97800  0.44380  0.80600  Biso   1.000  C
  H127     1.0000 0.85970  0.43930  0.71190  Biso   1.000  H
  H128     1.0000 0.98620  0.46420  0.85360  Biso   1.000  H
  H129     1.0000 0.92770  0.43150  0.80040  Biso   1.000  H
  H130     1.0000 0.00750  0.40070  0.80040  Biso   1.000  H
  H131     1.0000 0.96140  0.40010  0.78270  Biso   1.000  H
  H132     1.0000 0.01990  0.43280  0.83580  Biso   1.000  H
  H133     1.0000 0.94010  0.46360  0.83580  Biso   1.000  H
  N34      1.0000 0.58845  0.32884  0.87197  Biso   1.000  N
  N35      1.0000 0.07344  0.42365  0.37229  Biso   1.000  N
  C28      1.0000 0.02200  0.44380  0.19400  Biso   1.000  C
  H134     1.0000 0.14030  0.43930  0.28810  Biso   1.000  H
  H135     1.0000 0.01380  0.46420  0.14640  Biso   1.000  H
  H136     1.0000 0.07230  0.43150  0.19960  Biso   1.000  H
  H137     1.0000 0.99250  0.40070  0.19960  Biso   1.000  H
  H138     1.0000 0.03860  0.40010  0.21730  Biso   1.000  H
  H139     1.0000 0.98010  0.43280  0.16420  Biso   1.000  H
  H140     1.0000 0.05990  0.46360  0.16420  Biso   1.000  H
  N36      1.0000 0.41155  0.32884  0.12803  Biso   1.000  N
  N37      1.0000 0.57635  0.37229  0.92656  Biso   1.000  N
  C29      1.0000 0.55620  0.19400  0.97800  Biso   1.000  C
  H141     1.0000 0.56070  0.28810  0.85970  Biso   1.000  H
  H142     1.0000 0.53580  0.14640  0.98620  Biso   1.000  H
  H143     1.0000 0.56850  0.19960  0.92770  Biso   1.000  H
  H144     1.0000 0.59930  0.19960  0.00750  Biso   1.000  H
  H145     1.0000 0.59990  0.21730  0.96140  Biso   1.000  H
  H146     1.0000 0.56720  0.16420  0.01990  Biso   1.000  H
  H147     1.0000 0.53640  0.16420  0.94010  Biso   1.000  H
  N38      1.0000 0.57635  0.62771  0.07344  Biso   1.000  N
  C30      1.0000 0.55620  0.80600  0.02200  Biso   1.000  C
  H148     1.0000 0.56070  0.71190  0.14030  Biso   1.000  H
  H149     1.0000 0.53580  0.85360  0.01380  Biso   1.000  H
  H150     1.0000 0.56850  0.80040  0.07230  Biso   1.000  H
  H151     1.0000 0.59930  0.80040  0.99250  Biso   1.000  H
  H152     1.0000 0.59990  0.78270  0.03860  Biso   1.000  H
  H153     1.0000 0.56720  0.83580  0.98010  Biso   1.000  H
  H154     1.0000 0.53640  0.83580  0.05990  Biso   1.000  H
  N39      1.0000 0.42365  0.37229  0.07344  Biso   1.000  N
  C31      1.0000 0.44380  0.19400  0.02200  Biso   1.000  C
  H155     1.0000 0.43930  0.28810  0.14030  Biso   1.000  H
  H156     1.0000 0.46420  0.14640  0.01380  Biso   1.000  H
  H157     1.0000 0.43150  0.19960  0.07230  Biso   1.000  H
  H158     1.0000 0.40070  0.19960  0.99250  Biso   1.000  H
  H159     1.0000 0.40010  0.21730  0.03860  Biso   1.000  H
  H160     1.0000 0.43280  0.16420  0.98010  Biso   1.000  H
  H161     1.0000 0.46360  0.16420  0.05990  Biso   1.000  H
  N40      1.0000 0.42365  0.62771  0.92656  Biso   1.000  N
  C32      1.0000 0.44380  0.80600  0.97800  Biso   1.000  C
  H162     1.0000 0.43930  0.71190  0.85970  Biso   1.000  H
  H163     1.0000 0.46420  0.85360  0.98620  Biso   1.000  H
  H164     1.0000 0.43150  0.80040  0.92770  Biso   1.000  H
  H165     1.0000 0.40070  0.80040  0.00750  Biso   1.000  H
  H166     1.0000 0.40010  0.78270  0.96140  Biso   1.000  H
  H167     1.0000 0.43280  0.83580  0.01990  Biso   1.000  H
  H168     1.0000 0.46360  0.83580  0.94010  Biso   1.000  H
  N41      1.0000 0.92656  0.62771  0.42365  Biso   1.000  N
  C33      1.0000 0.87197  0.67116  0.41155  Biso   1.000  C
  C34      1.0000 0.97800  0.80600  0.44380  Biso   1.000  C
  H169     1.0000 0.85970  0.71190  0.43930  Biso   1.000  H
  H170     1.0000 0.98620  0.85360  0.46420  Biso   1.000  H
  H171     1.0000 0.92770  0.80040  0.43150  Biso   1.000  H
  H172     1.0000 0.00750  0.80040  0.40070  Biso   1.000  H
  H173     1.0000 0.96140  0.78270  0.40010  Biso   1.000  H
  H174     1.0000 0.01990  0.83580  0.43280  Biso   1.000  H
  H175     1.0000 0.94010  0.83580  0.46360  Biso   1.000  H
  N42      1.0000 0.58845  0.87197  0.32884  Biso   1.000  N
  N43      1.0000 0.07344  0.37229  0.42365  Biso   1.000  N
  C35      1.0000 0.12803  0.32884  0.41155  Biso   1.000  C
  C36      1.0000 0.02200  0.19400  0.44380  Biso   1.000  C
  H176     1.0000 0.14030  0.28810  0.43930  Biso   1.000  H
  H177     1.0000 0.01380  0.14640  0.46420  Biso   1.000  H
  H178     1.0000 0.07230  0.19960  0.43150  Biso   1.000  H
  H179     1.0000 0.99250  0.19960  0.40070  Biso   1.000  H
  H180     1.0000 0.03860  0.21730  0.40010  Biso   1.000  H
  H181     1.0000 0.98010  0.16420  0.43280  Biso   1.000  H
  H182     1.0000 0.05990  0.16420  0.46360  Biso   1.000  H
  N44      1.0000 0.41155  0.12803  0.32884  Biso   1.000  N
  N45      1.0000 0.07344  0.62771  0.57635  Biso   1.000  N
  C37      1.0000 0.12803  0.67116  0.58845  Biso   1.000  C
  C38      1.0000 0.02200  0.80600  0.55620  Biso   1.000  C
  H183     1.0000 0.14030  0.71190  0.56070  Biso   1.000  H
  H184     1.0000 0.01380  0.85360  0.53580  Biso   1.000  H
  H185     1.0000 0.07230  0.80040  0.56850  Biso   1.000  H
  H186     1.0000 0.99250  0.80040  0.59930  Biso   1.000  H
  H187     1.0000 0.03860  0.78270  0.59990  Biso   1.000  H
  H188     1.0000 0.98010  0.83580  0.56720  Biso   1.000  H
  H189     1.0000 0.05990  0.83580  0.53640  Biso   1.000  H
  N46      1.0000 0.41155  0.87197  0.67116  Biso   1.000  N
  N47      1.0000 0.92656  0.37229  0.57635  Biso   1.000  N
  C39      1.0000 0.87197  0.32884  0.58845  Biso   1.000  C
  C40      1.0000 0.97800  0.19400  0.55620  Biso   1.000  C
  H190     1.0000 0.85970  0.28810  0.56070  Biso   1.000  H
  H191     1.0000 0.98620  0.14640  0.53580  Biso   1.000  H
  H192     1.0000 0.92770  0.19960  0.56850  Biso   1.000  H
  H193     1.0000 0.00750  0.19960  0.59930  Biso   1.000  H
  H194     1.0000 0.96140  0.21730  0.59990  Biso   1.000  H
  H195     1.0000 0.01990  0.16420  0.56720  Biso   1.000  H
  H196     1.0000 0.94010  0.16420  0.53640  Biso   1.000  H
  N48      1.0000 0.58845  0.12803  0.67116  Biso   1.000  N
  N49      1.0000 0.42365  0.92656  0.62771  Biso   1.000  N
  C41      1.0000 0.44380  0.97800  0.80600  Biso   1.000  C
  H197     1.0000 0.43930  0.85970  0.71190  Biso   1.000  H
  H198     1.0000 0.46420  0.98620  0.85360  Biso   1.000  H
  H199     1.0000 0.43150  0.92770  0.80040  Biso   1.000  H
  H200     1.0000 0.40070  0.00750  0.80040  Biso   1.000  H
  H201     1.0000 0.40010  0.96140  0.78270  Biso   1.000  H
  H202     1.0000 0.43280  0.01990  0.83580  Biso   1.000  H
  H203     1.0000 0.46360  0.94010  0.83580  Biso   1.000  H
  N50      1.0000 0.32884  0.58845  0.87197  Biso   1.000  N
  N51      1.0000 0.42365  0.07344  0.37229  Biso   1.000  N
  C42      1.0000 0.44380  0.02200  0.19400  Biso   1.000  C
  H204     1.0000 0.43930  0.14030  0.28810  Biso   1.000  H
  H205     1.0000 0.46420  0.01380  0.14640  Biso   1.000  H
  H206     1.0000 0.43150  0.07230  0.19960  Biso   1.000  H
  H207     1.0000 0.40070  0.99250  0.19960  Biso   1.000  H
  H208     1.0000 0.40010  0.03860  0.21730  Biso   1.000  H
  H209     1.0000 0.43280  0.98010  0.16420  Biso   1.000  H
  H210     1.0000 0.46360  0.05990  0.16420  Biso   1.000  H
  N52      1.0000 0.32884  0.41155  0.12803  Biso   1.000  N
  N53      1.0000 0.57635  0.07344  0.62771  Biso   1.000  N
  C43      1.0000 0.55620  0.02200  0.80600  Biso   1.000  C
  H211     1.0000 0.56070  0.14030  0.71190  Biso   1.000  H
  H212     1.0000 0.53580  0.01380  0.85360  Biso   1.000  H
  H213     1.0000 0.56850  0.07230  0.80040  Biso   1.000  H
  H214     1.0000 0.59930  0.99250  0.80040  Biso   1.000  H
  H215     1.0000 0.59990  0.03860  0.78270  Biso   1.000  H
  H216     1.0000 0.56720  0.98010  0.83580  Biso   1.000  H
  H217     1.0000 0.53640  0.05990  0.83580  Biso   1.000  H
  N54      1.0000 0.67116  0.41155  0.87197  Biso   1.000  N
  N55      1.0000 0.57635  0.92656  0.37229  Biso   1.000  N
  C44      1.0000 0.55620  0.97800  0.19400  Biso   1.000  C
  H218     1.0000 0.56070  0.85970  0.28810  Biso   1.000  H
  H219     1.0000 0.53580  0.98620  0.14640  Biso   1.000  H
  H220     1.0000 0.56850  0.92770  0.19960  Biso   1.000  H
  H221     1.0000 0.59930  0.00750  0.19960  Biso   1.000  H
  H222     1.0000 0.59990  0.96140  0.21730  Biso   1.000  H
  H223     1.0000 0.56720  0.01990  0.16420  Biso   1.000  H
  H224     1.0000 0.53640  0.94010  0.16420  Biso   1.000  H
  N56      1.0000 0.67116  0.58845  0.12803  Biso   1.000  N
  N57      1.0000 0.62771  0.42365  0.92656  Biso   1.000  N
  C45      1.0000 0.80600  0.44380  0.97800  Biso   1.000  C
  H225     1.0000 0.71190  0.43930  0.85970  Biso   1.000  H
  H226     1.0000 0.85360  0.46420  0.98620  Biso   1.000  H
  H227     1.0000 0.80040  0.43150  0.92770  Biso   1.000  H
  H228     1.0000 0.80040  0.40070  0.00750  Biso   1.000  H
  H229     1.0000 0.78270  0.40010  0.96140  Biso   1.000  H
  H230     1.0000 0.83580  0.43280  0.01990  Biso   1.000  H
  H231     1.0000 0.83580  0.46360  0.94010  Biso   1.000  H
  N58      1.0000 0.37229  0.42365  0.07344  Biso   1.000  N
  C46      1.0000 0.19400  0.44380  0.02200  Biso   1.000  C
  H232     1.0000 0.28810  0.43930  0.14030  Biso   1.000  H
  H233     1.0000 0.14640  0.46420  0.01380  Biso   1.000  H
  H234     1.0000 0.19960  0.43150  0.07230  Biso   1.000  H
  H235     1.0000 0.19960  0.40070  0.99250  Biso   1.000  H
  H236     1.0000 0.21730  0.40010  0.03860  Biso   1.000  H
  H237     1.0000 0.16420  0.43280  0.98010  Biso   1.000  H
  H238     1.0000 0.16420  0.46360  0.05990  Biso   1.000  H
  N59      1.0000 0.62771  0.57635  0.07344  Biso   1.000  N
  C47      1.0000 0.80600  0.55620  0.02200  Biso   1.000  C
  H239     1.0000 0.71190  0.56070  0.14030  Biso   1.000  H
  H240     1.0000 0.85360  0.53580  0.01380  Biso   1.000  H
  H241     1.0000 0.80040  0.56850  0.07230  Biso   1.000  H
  H242     1.0000 0.80040  0.59930  0.99250  Biso   1.000  H
  H243     1.0000 0.78270  0.59990  0.03860  Biso   1.000  H
  H244     1.0000 0.83580  0.56720  0.98010  Biso   1.000  H
  H245     1.0000 0.83580  0.53640  0.05990  Biso   1.000  H
  N60      1.0000 0.37229  0.57635  0.92656  Biso   1.000  N
  C48      1.0000 0.19400  0.55620  0.97800  Biso   1.000  C
  H246     1.0000 0.28810  0.56070  0.85970  Biso   1.000  H
  H247     1.0000 0.14640  0.53580  0.98620  Biso   1.000  H
  H248     1.0000 0.19960  0.56850  0.92770  Biso   1.000  H
  H249     1.0000 0.19960  0.59930  0.00750  Biso   1.000  H
  H250     1.0000 0.21730  0.59990  0.96140  Biso   1.000  H
  H251     1.0000 0.16420  0.56720  0.01990  Biso   1.000  H
  H252     1.0000 0.16420  0.53640  0.94010  Biso   1.000  H
  N61      1.0000 0.62771  0.92656  0.57635  Biso   1.000  N
  C49      1.0000 0.67116  0.87197  0.58845  Biso   1.000  C
  C50      1.0000 0.80600  0.97800  0.55620  Biso   1.000  C
  H253     1.0000 0.71190  0.85970  0.56070  Biso   1.000  H
  H254     1.0000 0.85360  0.98620  0.53580  Biso   1.000  H
  H255     1.0000 0.80040  0.92770  0.56850  Biso   1.000  H
  H256     1.0000 0.80040  0.00750  0.59930  Biso   1.000  H
  H257     1.0000 0.78270  0.96140  0.59990  Biso   1.000  H
  H258     1.0000 0.83580  0.01990  0.56720  Biso   1.000  H
  H259     1.0000 0.83580  0.94010  0.53640  Biso   1.000  H
  N62      1.0000 0.87197  0.58845  0.67116  Biso   1.000  N
  N63      1.0000 0.37229  0.07344  0.57635  Biso   1.000  N
  C51      1.0000 0.32884  0.12803  0.58845  Biso   1.000  C
  C52      1.0000 0.19400  0.02200  0.55620  Biso   1.000  C
  H260     1.0000 0.28810  0.14030  0.56070  Biso   1.000  H
  H261     1.0000 0.14640  0.01380  0.53580  Biso   1.000  H
  H262     1.0000 0.19960  0.07230  0.56850  Biso   1.000  H
  H263     1.0000 0.19960  0.99250  0.59930  Biso   1.000  H
  H264     1.0000 0.21730  0.03860  0.59990  Biso   1.000  H
  H265     1.0000 0.16420  0.98010  0.56720  Biso   1.000  H
  H266     1.0000 0.16420  0.05990  0.53640  Biso   1.000  H
  N64      1.0000 0.12803  0.41155  0.67116  Biso   1.000  N
  N65      1.0000 0.62771  0.07344  0.42365  Biso   1.000  N
  C53      1.0000 0.67116  0.12803  0.41155  Biso   1.000  C
  C54      1.0000 0.80600  0.02200  0.44380  Biso   1.000  C
  H267     1.0000 0.71190  0.14030  0.43930  Biso   1.000  H
  H268     1.0000 0.85360  0.01380  0.46420  Biso   1.000  H
  H269     1.0000 0.80040  0.07230  0.43150  Biso   1.000  H
  H270     1.0000 0.80040  0.99250  0.40070  Biso   1.000  H
  H271     1.0000 0.78270  0.03860  0.40010  Biso   1.000  H
  H272     1.0000 0.83580  0.98010  0.43280  Biso   1.000  H
  H273     1.0000 0.83580  0.05990  0.46360  Biso   1.000  H
  N66      1.0000 0.87197  0.41155  0.32884  Biso   1.000  N
  N67      1.0000 0.37229  0.92656  0.42365  Biso   1.000  N
  C55      1.0000 0.32884  0.87197  0.41155  Biso   1.000  C
  C56      1.0000 0.19400  0.97800  0.44380  Biso   1.000  C
  H274     1.0000 0.28810  0.85970  0.43930  Biso   1.000  H
  H275     1.0000 0.14640  0.98620  0.46420  Biso   1.000  H
  H276     1.0000 0.19960  0.92770  0.43150  Biso   1.000  H
  H277     1.0000 0.19960  0.00750  0.40070  Biso   1.000  H
  H278     1.0000 0.21730  0.96140  0.40010  Biso   1.000  H
  H279     1.0000 0.16420  0.01990  0.43280  Biso   1.000  H
  H280     1.0000 0.16420  0.94010  0.46360  Biso   1.000  H
  N68      1.0000 0.12803  0.58845  0.32884  Biso   1.000  N
  N69      1.0000 0.92656  0.42365  0.37229  Biso   1.000  N
  C57      1.0000 0.97800  0.44380  0.19400  Biso   1.000  C
  H281     1.0000 0.85970  0.43930  0.28810  Biso   1.000  H
  H282     1.0000 0.98620  0.46420  0.14640  Biso   1.000  H
  H283     1.0000 0.92770  0.43150  0.19960  Biso   1.000  H
  H284     1.0000 0.00750  0.40070  0.19960  Biso   1.000  H
  H285     1.0000 0.96140  0.40010  0.21730  Biso   1.000  H
  H286     1.0000 0.01990  0.43280  0.16420  Biso   1.000  H
  H287     1.0000 0.94010  0.46360  0.16420  Biso   1.000  H
  N70      1.0000 0.58845  0.32884  0.12803  Biso   1.000  N
  N71      1.0000 0.07344  0.42365  0.62771  Biso   1.000  N
  C58      1.0000 0.02200  0.44380  0.80600  Biso   1.000  C
  H288     1.0000 0.14030  0.43930  0.71190  Biso   1.000  H
  H289     1.0000 0.01380  0.46420  0.85360  Biso   1.000  H
  H290     1.0000 0.07230  0.43150  0.80040  Biso   1.000  H
  H291     1.0000 0.99250  0.40070  0.80040  Biso   1.000  H
  H292     1.0000 0.03860  0.40010  0.78270  Biso   1.000  H
  H293     1.0000 0.98010  0.43280  0.83580  Biso   1.000  H
  H294     1.0000 0.05990  0.46360  0.83580  Biso   1.000  H
  N72      1.0000 0.41155  0.32884  0.87197  Biso   1.000  N
  N73      1.0000 0.07344  0.57635  0.37229  Biso   1.000  N
  C59      1.0000 0.02200  0.55620  0.19400  Biso   1.000  C
  H295     1.0000 0.14030  0.56070  0.28810  Biso   1.000  H
  H296     1.0000 0.01380  0.53580  0.14640  Biso   1.000  H
  H297     1.0000 0.07230  0.56850  0.19960  Biso   1.000  H
  H298     1.0000 0.99250  0.59930  0.19960  Biso   1.000  H
  H299     1.0000 0.03860  0.59990  0.21730  Biso   1.000  H
  H300     1.0000 0.98010  0.56720  0.16420  Biso   1.000  H
  H301     1.0000 0.05990  0.53640  0.16420  Biso   1.000  H
  N74      1.0000 0.41155  0.67116  0.12803  Biso   1.000  N
  N75      1.0000 0.92656  0.57635  0.62771  Biso   1.000  N
  C60      1.0000 0.97800  0.55620  0.80600  Biso   1.000  C
  H302     1.0000 0.85970  0.56070  0.71190  Biso   1.000  H
  H303     1.0000 0.98620  0.53580  0.85360  Biso   1.000  H
  H304     1.0000 0.92770  0.56850  0.80040  Biso   1.000  H
  H305     1.0000 0.00750  0.59930  0.80040  Biso   1.000  H
  H306     1.0000 0.96140  0.59990  0.78270  Biso   1.000  H
  H307     1.0000 0.01990  0.56720  0.83580  Biso   1.000  H
  H308     1.0000 0.94010  0.53640  0.83580  Biso   1.000  H
  N76      1.0000 0.58845  0.67116  0.87197  Biso   1.000  N
  N77      1.0000 0.42365  0.62771  0.07344  Biso   1.000  N
  C61      1.0000 0.44380  0.80600  0.02200  Biso   1.000  C
  H309     1.0000 0.43930  0.71190  0.14030  Biso   1.000  H
  H310     1.0000 0.46420  0.85360  0.01380  Biso   1.000  H
  H311     1.0000 0.43150  0.80040  0.07230  Biso   1.000  H
  H312     1.0000 0.40070  0.80040  0.99250  Biso   1.000  H
  H313     1.0000 0.40010  0.78270  0.03860  Biso   1.000  H
  H314     1.0000 0.43280  0.83580  0.98010  Biso   1.000  H
  H315     1.0000 0.46360  0.83580  0.05990  Biso   1.000  H
  N78      1.0000 0.42365  0.37229  0.92656  Biso   1.000  N
  C62      1.0000 0.44380  0.19400  0.97800  Biso   1.000  C
  H316     1.0000 0.43930  0.28810  0.85970  Biso   1.000  H
  H317     1.0000 0.46420  0.14640  0.98620  Biso   1.000  H
  H318     1.0000 0.43150  0.19960  0.92770  Biso   1.000  H
  H319     1.0000 0.40070  0.19960  0.00750  Biso   1.000  H
  H320     1.0000 0.40010  0.21730  0.96140  Biso   1.000  H
  H321     1.0000 0.43280  0.16420  0.01990  Biso   1.000  H
  H322     1.0000 0.46360  0.16420  0.94010  Biso   1.000  H
  N79      1.0000 0.57635  0.62771  0.92656  Biso   1.000  N
  C63      1.0000 0.55620  0.80600  0.97800  Biso   1.000  C
  H323     1.0000 0.56070  0.71190  0.85970  Biso   1.000  H
  H324     1.0000 0.53580  0.85360  0.98620  Biso   1.000  H
  H325     1.0000 0.56850  0.80040  0.92770  Biso   1.000  H
  H326     1.0000 0.59930  0.80040  0.00750  Biso   1.000  H
  H327     1.0000 0.59990  0.78270  0.96140  Biso   1.000  H
  H328     1.0000 0.56720  0.83580  0.01990  Biso   1.000  H
  H329     1.0000 0.53640  0.83580  0.94010  Biso   1.000  H
  N80      1.0000 0.57635  0.37229  0.07344  Biso   1.000  N
  C64      1.0000 0.55620  0.19400  0.02200  Biso   1.000  C
  H330     1.0000 0.56070  0.28810  0.14030  Biso   1.000  H
  H331     1.0000 0.53580  0.14640  0.01380  Biso   1.000  H
  H332     1.0000 0.56850  0.19960  0.07230  Biso   1.000  H
  H333     1.0000 0.59930  0.19960  0.99250  Biso   1.000  H
  H334     1.0000 0.59990  0.21730  0.03860  Biso   1.000  H
  H335     1.0000 0.56720  0.16420  0.98010  Biso   1.000  H
  H336     1.0000 0.53640  0.16420  0.05990  Biso   1.000  H
  Co1      1.0000 0.00000  0.36896  0.50000  Biso   1.000  Co
  O1       1.0000 0.00000  0.25250  0.50000  Biso   1.000  O
  Co2      1.0000 0.00000  0.63104  0.50000  Biso   1.000  Co
  O2       1.0000 0.00000  0.74750  0.50000  Biso   1.000  O
  Co3      1.0000 0.50000  0.00000  0.36896  Biso   1.000  Co
  O3       1.0000 0.50000  0.00000  0.25250  Biso   1.000  O
  Co4      1.0000 0.50000  0.00000  0.63104  Biso   1.000  Co
  O4       1.0000 0.50000  0.00000  0.74750  Biso   1.000  O
  Co5      1.0000 0.36896  0.50000  0.00000  Biso   1.000  Co
  O5       1.0000 0.25250  0.50000  0.00000  Biso   1.000  O
  Co6      1.0000 0.63104  0.50000  0.00000  Biso   1.000  Co
  O6       1.0000 0.74750  0.50000  0.00000  Biso   1.000  O
  Co7      1.0000 0.36896  0.00000  0.50000  Biso   1.000  Co
  O7       1.0000 0.25250  0.00000  0.50000  Biso   1.000  O
  Co8      1.0000 0.63104  0.00000  0.50000  Biso   1.000  Co
  O8       1.0000 0.74750  0.00000  0.50000  Biso   1.000  O
  Co9      1.0000 0.00000  0.50000  0.63104  Biso   1.000  Co
  O9       1.0000 0.00000  0.50000  0.74750  Biso   1.000  O
  Co10     1.0000 0.00000  0.50000  0.36896  Biso   1.000  Co
  O10      1.0000 0.00000  0.50000  0.25250  Biso   1.000  O
  Co11     1.0000 0.50000  0.36896  0.00000  Biso   1.000  Co
  O11      1.0000 0.50000  0.25250  0.00000  Biso   1.000  O
  Co12     1.0000 0.50000  0.63104  0.00000  Biso   1.000  Co
  O12      1.0000 0.50000  0.74750  0.00000  Biso   1.000  O
  Cl1      1.0000 0.00000  0.50000  0.50000  Biso   1.000  Cl
  Cl2      1.0000 0.50000  0.00000  0.50000  Biso   1.000  Cl
  Cl3      1.0000 0.50000  0.50000  0.00000  Biso   1.000  Cl
  C65      1.0000 0.22880  0.32054  0.67946  Biso   1.000  C
  C66      1.0000 0.16380  0.35240  0.64760  Biso   1.000  C
  C67      1.0000 0.77120  0.67946  0.67946  Biso   1.000  C
  C68      1.0000 0.83620  0.64760  0.64760  Biso   1.000  C
  C69      1.0000 0.77120  0.32054  0.32054  Biso   1.000  C
  C70      1.0000 0.83620  0.35240  0.35240  Biso   1.000  C
  C71      1.0000 0.22880  0.67946  0.32054  Biso   1.000  C
  C72      1.0000 0.16380  0.64760  0.35240  Biso   1.000  C
  C73      1.0000 0.67946  0.22880  0.32054  Biso   1.000  C
  C74      1.0000 0.64760  0.16380  0.35240  Biso   1.000  C
  C75      1.0000 0.67946  0.77120  0.67946  Biso   1.000  C
  C76      1.0000 0.64760  0.83620  0.64760  Biso   1.000  C
  C77      1.0000 0.32054  0.77120  0.32054  Biso   1.000  C
  C78      1.0000 0.35240  0.83620  0.35240  Biso   1.000  C
  C79      1.0000 0.32054  0.22880  0.67946  Biso   1.000  C
  C80      1.0000 0.35240  0.16380  0.64760  Biso   1.000  C
  C81      1.0000 0.32054  0.67946  0.22880  Biso   1.000  C
  C82      1.0000 0.35240  0.64760  0.16380  Biso   1.000  C
  C83      1.0000 0.67946  0.67946  0.77120  Biso   1.000  C
  C84      1.0000 0.64760  0.64760  0.83620  Biso   1.000  C
  C85      1.0000 0.32054  0.32054  0.77120  Biso   1.000  C
  C86      1.0000 0.35240  0.35240  0.83620  Biso   1.000  C
  C87      1.0000 0.67946  0.32054  0.22880  Biso   1.000  C
  C88      1.0000 0.64760  0.35240  0.16380  Biso   1.000  C
  C89      1.0000 0.32054  0.22880  0.32054  Biso   1.000  C
  C90      1.0000 0.35240  0.16380  0.35240  Biso   1.000  C
  C91      1.0000 0.67946  0.77120  0.32054  Biso   1.000  C
  C92      1.0000 0.64760  0.83620  0.35240  Biso   1.000  C
  C93      1.0000 0.32054  0.77120  0.67946  Biso   1.000  C
  C94      1.0000 0.35240  0.83620  0.64760  Biso   1.000  C
  C95      1.0000 0.67946  0.22880  0.67946  Biso   1.000  C
  C96      1.0000 0.64760  0.16380  0.64760  Biso   1.000  C
  C97      1.0000 0.22880  0.67946  0.67946  Biso   1.000  C
  C98      1.0000 0.16380  0.64760  0.64760  Biso   1.000  C
  C99      1.0000 0.77120  0.67946  0.32054  Biso   1.000  C
  C100     1.0000 0.83620  0.64760  0.35240  Biso   1.000  C
  C101     1.0000 0.77120  0.32054  0.67946  Biso   1.000  C
  C102     1.0000 0.83620  0.35240  0.64760  Biso   1.000  C
  C103     1.0000 0.22880  0.32054  0.32054  Biso   1.000  C
  C104     1.0000 0.16380  0.35240  0.35240  Biso   1.000  C
  C105     1.0000 0.67946  0.32054  0.77120  Biso   1.000  C
  C106     1.0000 0.64760  0.35240  0.83620  Biso   1.000  C
  C107     1.0000 0.67946  0.67946  0.22880  Biso   1.000  C
  C108     1.0000 0.64760  0.64760  0.16380  Biso   1.000  C
  C109     1.0000 0.32054  0.32054  0.22880  Biso   1.000  C
  C110     1.0000 0.35240  0.35240  0.16380  Biso   1.000  C
  C111     1.0000 0.32054  0.67946  0.77120  Biso   1.000  C
  C112     1.0000 0.35240  0.64760  0.83620  Biso   1.000  C
  C113     1.0000 0.25970  0.25970  0.65030  Biso   1.000  C
  H337     1.0000 0.23860  0.23860  0.60920  Biso   1.000  H
  C114     1.0000 0.74030  0.74030  0.65030  Biso   1.000  C
  H338     1.0000 0.76140  0.76140  0.60920  Biso   1.000  H
  C115     1.0000 0.74030  0.25970  0.34970  Biso   1.000  C
  H339     1.0000 0.76140  0.23860  0.39080  Biso   1.000  H
  C116     1.0000 0.25970  0.74030  0.34970  Biso   1.000  C
  H340     1.0000 0.23860  0.76140  0.39080  Biso   1.000  H
  C117     1.0000 0.65030  0.25970  0.25970  Biso   1.000  C
  H341     1.0000 0.60920  0.23860  0.23860  Biso   1.000  H
  C118     1.0000 0.65030  0.74030  0.74030  Biso   1.000  C
  H342     1.0000 0.60920  0.76140  0.76140  Biso   1.000  H
  C119     1.0000 0.34970  0.74030  0.25970  Biso   1.000  C
  H343     1.0000 0.39080  0.76140  0.23860  Biso   1.000  H
  C120     1.0000 0.34970  0.25970  0.74030  Biso   1.000  C
  H344     1.0000 0.39080  0.23860  0.76140  Biso   1.000  H
  C121     1.0000 0.25970  0.65030  0.25970  Biso   1.000  C
  H345     1.0000 0.23860  0.60920  0.23860  Biso   1.000  H
  C122     1.0000 0.74030  0.65030  0.74030  Biso   1.000  C
  H346     1.0000 0.76140  0.60920  0.76140  Biso   1.000  H
  C123     1.0000 0.25970  0.34970  0.74030  Biso   1.000  C
  H347     1.0000 0.23860  0.39080  0.76140  Biso   1.000  H
  C124     1.0000 0.74030  0.34970  0.25970  Biso   1.000  C
  H348     1.0000 0.76140  0.39080  0.23860  Biso   1.000  H
  C125     1.0000 0.25970  0.25970  0.34970  Biso   1.000  C
  H349     1.0000 0.23860  0.23860  0.39080  Biso   1.000  H
  C126     1.0000 0.74030  0.74030  0.34970  Biso   1.000  C
  H350     1.0000 0.76140  0.76140  0.39080  Biso   1.000  H
  C127     1.0000 0.25970  0.74030  0.65030  Biso   1.000  C
  H351     1.0000 0.23860  0.76140  0.60920  Biso   1.000  H
  C128     1.0000 0.74030  0.25970  0.65030  Biso   1.000  C
  H352     1.0000 0.76140  0.23860  0.60920  Biso   1.000  H
  C129     1.0000 0.25970  0.65030  0.74030  Biso   1.000  C
  H353     1.0000 0.23860  0.60920  0.76140  Biso   1.000  H
  C130     1.0000 0.74030  0.65030  0.25970  Biso   1.000  C
  H354     1.0000 0.76140  0.60920  0.23860  Biso   1.000  H
  C131     1.0000 0.74030  0.34970  0.74030  Biso   1.000  C
  H355     1.0000 0.76140  0.39080  0.76140  Biso   1.000  H
  C132     1.0000 0.25970  0.34970  0.25970  Biso   1.000  C
  H356     1.0000 0.23860  0.39080  0.23860  Biso   1.000  H
  C133     1.0000 0.65030  0.25970  0.74030  Biso   1.000  C
  H357     1.0000 0.60920  0.23860  0.76140  Biso   1.000  H
  C134     1.0000 0.65030  0.74030  0.25970  Biso   1.000  C
  H358     1.0000 0.60920  0.76140  0.23860  Biso   1.000  H
  C135     1.0000 0.34970  0.25970  0.25970  Biso   1.000  C
  H359     1.0000 0.39080  0.23860  0.23860  Biso   1.000  H
  C136     1.0000 0.34970  0.74030  0.74030  Biso   1.000  C
  H360     1.0000 0.39080  0.76140  0.76140  Biso   1.000  H
