data_image0
_cell_length_a       17.75
_cell_length_b       17.75
_cell_length_c       19.192
_cell_angle_alpha    90
_cell_angle_beta     90
_cell_angle_gamma    120

_symmetry_space_group_name_H-M    P 1
_symmetry_int_tables_number       1

loop_
  _symmetry_equiv_pos_as_xyz
  'x, y, z'

loop_
  _atom_site_label
  _atom_site_occupancy
  _atom_site_fract_x
  _atom_site_fract_y
  _atom_site_fract_z
  _atom_site_thermal_displace_type
  _atom_site_B_iso_or_equiv
  _atom_site_type_symbol
  Zn1      1.0000 0.87288  0.50416  0.32784  Biso   1.000  Zn
  Zn2      1.0000 0.63128  0.12712  0.32784  Biso   1.000  Zn
  Zn3      1.0000 0.49584  0.36872  0.32784  Biso   1.000  Zn
  Zn4      1.0000 0.36872  0.49584  0.67216  Biso   1.000  Zn
  Zn5      1.0000 0.50416  0.87288  0.67216  Biso   1.000  Zn
  Zn6      1.0000 0.12712  0.63128  0.67216  Biso   1.000  Zn
  Zn7      1.0000 0.66667  0.33334  0.26447  Biso   1.000  Zn
  Zn8      1.0000 0.66667  0.33334  0.07796  Biso   1.000  Zn
  Zn9      1.0000 0.33333  0.66666  0.73553  Biso   1.000  Zn
  Zn10     1.0000 0.33333  0.66666  0.92204  Biso   1.000  Zn
  H1       1.0000 0.10660  0.73450  0.40570  Biso   1.000  H
  H2       1.0000 0.14640  0.67640  0.37850  Biso   1.000  H
  H3       1.0000 0.10830  0.66330  0.45590  Biso   1.000  H
  H4       1.0000 0.79460  0.13590  0.43300  Biso   1.000  H
  H5       1.0000 0.92060  0.19980  0.49940  Biso   1.000  H
  H6       1.0000 0.97960  0.44320  0.43980  Biso   1.000  H
  H7       1.0000 0.85950  0.47020  0.00050  Biso   1.000  H
  H8       1.0000 0.08540  0.65310  0.08970  Biso   1.000  H
  H9       1.0000 0.02610  0.61910  0.20080  Biso   1.000  H
  H10      1.0000 0.62790  0.89340  0.40570  Biso   1.000  H
  H11      1.0000 0.53000  0.85360  0.37850  Biso   1.000  H
  H12      1.0000 0.55500  0.89170  0.45590  Biso   1.000  H
  H13      1.0000 0.34130  0.20540  0.43300  Biso   1.000  H
  H14      1.0000 0.27920  0.07940  0.49940  Biso   1.000  H
  H15      1.0000 0.46360  0.02040  0.43980  Biso   1.000  H
  H16      1.0000 0.61070  0.14050  0.00050  Biso   1.000  H
  H17      1.0000 0.56770  0.91460  0.08970  Biso   1.000  H
  H18      1.0000 0.59300  0.97390  0.20080  Biso   1.000  H
  H19      1.0000 0.26550  0.37210  0.40570  Biso   1.000  H
  H20      1.0000 0.32360  0.47000  0.37850  Biso   1.000  H
  H21      1.0000 0.33670  0.44500  0.45590  Biso   1.000  H
  H22      1.0000 0.86410  0.65870  0.43300  Biso   1.000  H
  H23      1.0000 0.80020  0.72080  0.49940  Biso   1.000  H
  H24      1.0000 0.55680  0.53640  0.43980  Biso   1.000  H
  H25      1.0000 0.52980  0.38930  0.00050  Biso   1.000  H
  H26      1.0000 0.34690  0.43230  0.08970  Biso   1.000  H
  H27      1.0000 0.38090  0.40700  0.20080  Biso   1.000  H
  H28      1.0000 0.37210  0.26550  0.59430  Biso   1.000  H
  H29      1.0000 0.47000  0.32360  0.62150  Biso   1.000  H
  H30      1.0000 0.44500  0.33670  0.54410  Biso   1.000  H
  H31      1.0000 0.65870  0.86410  0.56700  Biso   1.000  H
  H32      1.0000 0.72080  0.80020  0.50060  Biso   1.000  H
  H33      1.0000 0.53640  0.55680  0.56020  Biso   1.000  H
  H34      1.0000 0.38930  0.52980  0.99950  Biso   1.000  H
  H35      1.0000 0.43230  0.34690  0.91030  Biso   1.000  H
  H36      1.0000 0.40700  0.38090  0.79920  Biso   1.000  H
  H37      1.0000 0.73450  0.10660  0.59430  Biso   1.000  H
  H38      1.0000 0.67640  0.14640  0.62150  Biso   1.000  H
  H39      1.0000 0.66330  0.10830  0.54410  Biso   1.000  H
  H40      1.0000 0.13590  0.79460  0.56700  Biso   1.000  H
  H41      1.0000 0.19980  0.92060  0.50060  Biso   1.000  H
  H42      1.0000 0.44320  0.97960  0.56020  Biso   1.000  H
  H43      1.0000 0.47020  0.85950  0.99950  Biso   1.000  H
  H44      1.0000 0.65310  0.08540  0.91030  Biso   1.000  H
  H45      1.0000 0.61910  0.02610  0.79920  Biso   1.000  H
  H46      1.0000 0.89340  0.62790  0.59430  Biso   1.000  H
  H47      1.0000 0.85360  0.53000  0.62150  Biso   1.000  H
  H48      1.0000 0.89170  0.55500  0.54410  Biso   1.000  H
  H49      1.0000 0.20540  0.34130  0.56700  Biso   1.000  H
  H50      1.0000 0.07940  0.27920  0.50060  Biso   1.000  H
  H51      1.0000 0.02040  0.46360  0.56020  Biso   1.000  H
  H52      1.0000 0.14050  0.61070  0.99950  Biso   1.000  H
  H53      1.0000 0.91460  0.56770  0.91030  Biso   1.000  H
  H54      1.0000 0.97390  0.59300  0.79920  Biso   1.000  H
  C1       1.0000 0.01230  0.60910  0.38100  Biso   1.000  C
  C2       1.0000 0.10130  0.67680  0.40760  Biso   1.000  C
  C3       1.0000 0.86730  0.34375  0.39747  Biso   1.000  C
  C4       1.0000 0.81170  0.25310  0.39544  Biso   1.000  C
  C5       1.0000 0.83130  0.19730  0.43420  Biso   1.000  C
  C6       1.0000 0.90550  0.23580  0.47330  Biso   1.000  C
  C7       1.0000 0.96150  0.32840  0.47673  Biso   1.000  C
  C8       1.0000 0.94260  0.38180  0.43856  Biso   1.000  C
  C9       1.0000 0.90530  0.52140  0.16716  Biso   1.000  C
  C10      1.0000 0.85729  0.47929  0.10786  Biso   1.000  C
  C11      1.0000 0.89290  0.49970  0.04036  Biso   1.000  C
  C12      1.0000 0.97810  0.56410  0.03483  Biso   1.000  C
  C13      1.0000 0.02668  0.60819  0.09528  Biso   1.000  C
  C14      1.0000 0.99265  0.58876  0.16112  Biso   1.000  C
  C15      1.0000 0.59680  0.98770  0.38100  Biso   1.000  C
  C16      1.0000 0.57550  0.89870  0.40760  Biso   1.000  C
  C17      1.0000 0.47645  0.13270  0.39747  Biso   1.000  C
  C18      1.0000 0.44140  0.18830  0.39544  Biso   1.000  C
  C19      1.0000 0.36600  0.16870  0.43420  Biso   1.000  C
  C20      1.0000 0.33030  0.09450  0.47330  Biso   1.000  C
  C21      1.0000 0.36690  0.03850  0.47673  Biso   1.000  C
  C22      1.0000 0.43920  0.05740  0.43856  Biso   1.000  C
  C23      1.0000 0.61610  0.09470  0.16716  Biso   1.000  C
  C24      1.0000 0.62200  0.14271  0.10786  Biso   1.000  C
  C25      1.0000 0.60680  0.10710  0.04036  Biso   1.000  C
  C26      1.0000 0.58600  0.02190  0.03483  Biso   1.000  C
  C27      1.0000 0.58151  0.97332  0.09528  Biso   1.000  C
  C28      1.0000 0.59611  0.00735  0.16112  Biso   1.000  C
  C29      1.0000 0.39090  0.40320  0.38100  Biso   1.000  C
  C30      1.0000 0.32320  0.42450  0.40760  Biso   1.000  C
  C31      1.0000 0.65625  0.52355  0.39747  Biso   1.000  C
  C32      1.0000 0.74690  0.55860  0.39544  Biso   1.000  C
  C33      1.0000 0.80270  0.63400  0.43420  Biso   1.000  C
  C34      1.0000 0.76420  0.66970  0.47330  Biso   1.000  C
  C35      1.0000 0.67160  0.63310  0.47673  Biso   1.000  C
  C36      1.0000 0.61820  0.56080  0.43856  Biso   1.000  C
  C37      1.0000 0.47860  0.38390  0.16716  Biso   1.000  C
  C38      1.0000 0.52071  0.37800  0.10786  Biso   1.000  C
  C39      1.0000 0.50030  0.39320  0.04036  Biso   1.000  C
  C40      1.0000 0.43590  0.41400  0.03483  Biso   1.000  C
  C41      1.0000 0.39181  0.41849  0.09528  Biso   1.000  C
  C42      1.0000 0.41124  0.40389  0.16112  Biso   1.000  C
  C43      1.0000 0.40320  0.39090  0.61900  Biso   1.000  C
  C44      1.0000 0.42450  0.32320  0.59240  Biso   1.000  C
  C45      1.0000 0.52355  0.65625  0.60253  Biso   1.000  C
  C46      1.0000 0.55860  0.74690  0.60456  Biso   1.000  C
  C47      1.0000 0.63400  0.80270  0.56580  Biso   1.000  C
  C48      1.0000 0.66970  0.76420  0.52670  Biso   1.000  C
  C49      1.0000 0.63310  0.67160  0.52327  Biso   1.000  C
  C50      1.0000 0.56080  0.61820  0.56144  Biso   1.000  C
  C51      1.0000 0.38390  0.47860  0.83284  Biso   1.000  C
  C52      1.0000 0.37800  0.52071  0.89214  Biso   1.000  C
  C53      1.0000 0.39320  0.50030  0.95964  Biso   1.000  C
  C54      1.0000 0.41400  0.43590  0.96517  Biso   1.000  C
  C55      1.0000 0.41849  0.39181  0.90472  Biso   1.000  C
  C56      1.0000 0.40389  0.41124  0.83888  Biso   1.000  C
  C57      1.0000 0.60910  0.01230  0.61900  Biso   1.000  C
  C58      1.0000 0.67680  0.10130  0.59240  Biso   1.000  C
  C59      1.0000 0.34375  0.86730  0.60253  Biso   1.000  C
  C60      1.0000 0.25310  0.81170  0.60456  Biso   1.000  C
  C61      1.0000 0.19730  0.83130  0.56580  Biso   1.000  C
  C62      1.0000 0.23580  0.90550  0.52670  Biso   1.000  C
  C63      1.0000 0.32840  0.96150  0.52327  Biso   1.000  C
  C64      1.0000 0.38180  0.94260  0.56144  Biso   1.000  C
  C65      1.0000 0.52140  0.90530  0.83284  Biso   1.000  C
  C66      1.0000 0.47929  0.85729  0.89214  Biso   1.000  C
  C67      1.0000 0.49970  0.89290  0.95964  Biso   1.000  C
  C68      1.0000 0.56410  0.97810  0.96517  Biso   1.000  C
  C69      1.0000 0.60819  0.02668  0.90472  Biso   1.000  C
  C70      1.0000 0.58876  0.99265  0.83888  Biso   1.000  C
  C71      1.0000 0.98770  0.59680  0.61900  Biso   1.000  C
  C72      1.0000 0.89870  0.57550  0.59240  Biso   1.000  C
  C73      1.0000 0.13270  0.47645  0.60253  Biso   1.000  C
  C74      1.0000 0.18830  0.44140  0.60456  Biso   1.000  C
  C75      1.0000 0.16870  0.36600  0.56580  Biso   1.000  C
  C76      1.0000 0.09450  0.33030  0.52670  Biso   1.000  C
  C77      1.0000 0.03850  0.36690  0.52327  Biso   1.000  C
  C78      1.0000 0.05740  0.43920  0.56144  Biso   1.000  C
  C79      1.0000 0.09470  0.61610  0.83284  Biso   1.000  C
  C80      1.0000 0.14271  0.62200  0.89214  Biso   1.000  C
  C81      1.0000 0.10710  0.60680  0.95964  Biso   1.000  C
  C82      1.0000 0.02190  0.58600  0.96517  Biso   1.000  C
  C83      1.0000 0.97332  0.58151  0.90472  Biso   1.000  C
  C84      1.0000 0.00735  0.59611  0.83888  Biso   1.000  C
  N1       1.0000 0.74431  0.23780  0.35294  Biso   1.000  N
  N2       1.0000 0.75739  0.31416  0.33034  Biso   1.000  N
  N3       1.0000 0.83101  0.37886  0.35666  Biso   1.000  N
  N4       1.0000 0.85265  0.48536  0.22328  Biso   1.000  N
  N5       1.0000 0.77604  0.42367  0.19914  Biso   1.000  N
  N6       1.0000 0.77666  0.41830  0.13042  Biso   1.000  N
  N7       1.0000 0.49349  0.25569  0.35294  Biso   1.000  N
  N8       1.0000 0.55677  0.24261  0.33034  Biso   1.000  N
  N9       1.0000 0.54785  0.16899  0.35666  Biso   1.000  N
  N10      1.0000 0.63271  0.14735  0.22328  Biso   1.000  N
  N11      1.0000 0.64763  0.22396  0.19914  Biso   1.000  N
  N12      1.0000 0.64164  0.22334  0.13042  Biso   1.000  N
  N13      1.0000 0.76220  0.50651  0.35294  Biso   1.000  N
  N14      1.0000 0.68584  0.44323  0.33034  Biso   1.000  N
  N15      1.0000 0.62114  0.45215  0.35666  Biso   1.000  N
  N16      1.0000 0.51464  0.36729  0.22328  Biso   1.000  N
  N17      1.0000 0.57633  0.35237  0.19914  Biso   1.000  N
  N18      1.0000 0.58170  0.35836  0.13042  Biso   1.000  N
  N19      1.0000 0.50651  0.76220  0.64706  Biso   1.000  N
  N20      1.0000 0.44323  0.68584  0.66966  Biso   1.000  N
  N21      1.0000 0.45215  0.62114  0.64334  Biso   1.000  N
  N22      1.0000 0.36729  0.51464  0.77672  Biso   1.000  N
  N23      1.0000 0.35237  0.57633  0.80086  Biso   1.000  N
  N24      1.0000 0.35836  0.58170  0.86958  Biso   1.000  N
  N25      1.0000 0.23780  0.74431  0.64706  Biso   1.000  N
  N26      1.0000 0.31416  0.75739  0.66966  Biso   1.000  N
  N27      1.0000 0.37886  0.83101  0.64334  Biso   1.000  N
  N28      1.0000 0.48536  0.85265  0.77672  Biso   1.000  N
  N29      1.0000 0.42367  0.77604  0.80086  Biso   1.000  N
  N30      1.0000 0.41830  0.77666  0.86958  Biso   1.000  N
  N31      1.0000 0.25569  0.49349  0.64706  Biso   1.000  N
  N32      1.0000 0.24261  0.55677  0.66966  Biso   1.000  N
  N33      1.0000 0.16899  0.54785  0.64334  Biso   1.000  N
  N34      1.0000 0.14735  0.63271  0.77672  Biso   1.000  N
  N35      1.0000 0.22396  0.64763  0.80086  Biso   1.000  N
  N36      1.0000 0.22334  0.64164  0.86958  Biso   1.000  N
  O1       1.0000 0.94450  0.56660  0.43250  Biso   1.000  O
  O2       1.0000 0.99350  0.59720  0.32770  Biso   1.000  O
  O3       1.0000 0.62210  0.05550  0.43250  Biso   1.000  O
  O4       1.0000 0.60370  0.00650  0.32770  Biso   1.000  O
  O5       1.0000 0.43340  0.37790  0.43250  Biso   1.000  O
  O6       1.0000 0.40280  0.39630  0.32770  Biso   1.000  O
  O7       1.0000 0.37790  0.43340  0.56750  Biso   1.000  O
  O8       1.0000 0.39630  0.40280  0.67230  Biso   1.000  O
  O9       1.0000 0.56660  0.94450  0.56750  Biso   1.000  O
  O10      1.0000 0.59720  0.99350  0.67230  Biso   1.000  O
  O11      1.0000 0.05550  0.62210  0.56750  Biso   1.000  O
  O12      1.0000 0.00650  0.60370  0.67230  Biso   1.000  O
