data_image0
_cell_length_a       8.5085
_cell_length_b       16.0156
_cell_length_c       27.9393
_cell_angle_alpha    90
_cell_angle_beta     90
_cell_angle_gamma    90

_symmetry_space_group_name_H-M    "P 1"
_symmetry_int_tables_number       1

loop_
  _symmetry_equiv_pos_as_xyz
  'x, y, z'

loop_
  _atom_site_label
  _atom_site_occupancy
  _atom_site_fract_x
  _atom_site_fract_y
  _atom_site_fract_z
  _atom_site_thermal_displace_type
  _atom_site_B_iso_or_equiv
  _atom_site_type_symbol
  Tb1      1.0000 0.77034  0.80614  0.33229  Biso   1.000  Tb
  Tb2      1.0000 0.73059  0.20398  0.16917  Biso   1.000  Tb
  O1       1.0000 0.52080  0.71220  0.37140  Biso   1.000  O
  O2       1.0000 0.94160  0.11880  0.18390  Biso   1.000  O
  O3       1.0000 0.14650  0.76280  0.26480  Biso   1.000  O
  O4       1.0000 0.66720  0.06600  0.14500  Biso   1.000  O
  O5       1.0000 0.51520  0.70670  0.62710  Biso   1.000  O
  O6       1.0000 0.17490  0.16380  0.16010  Biso   1.000  O
  O7       1.0000 0.68420  0.78870  0.58970  Biso   1.000  O
  O8       1.0000 0.32140  0.84410  0.33680  Biso   1.000  O
  O9       1.0000 0.68550  0.79290  0.41150  Biso   1.000  O
  O10      1.0000 0.94010  0.84710  0.27170  Biso   1.000  O
  O11      1.0000 0.56050  0.16680  0.22920  Biso   1.000  O
  O12      1.0000 0.55720  0.89470  0.31580  Biso   1.000  O
  O13      1.0000 0.82700  0.94530  0.35640  Biso   1.000  O
  O14      1.0000 0.34530  0.24710  0.23460  Biso   1.000  O
  N1       1.0000 0.12870  0.07990  0.32480  Biso   1.000  N
  N2       1.0000 0.41480  0.58280  0.49710  Biso   1.000  N
  N3       1.0000 0.37130  0.92810  0.17460  Biso   1.000  N
  N4       1.0000 0.73800  0.93210  0.13780  Biso   1.000  N
  N5       1.0000 0.75100  0.07880  0.36600  Biso   1.000  N
  C1       1.0000 0.57960  0.73670  0.40930  Biso   1.000  C
  C2       1.0000 0.08800  0.11030  0.17610  Biso   1.000  C
  C3       1.0000 0.43100  0.18170  0.24420  Biso   1.000  C
  C4       1.0000 0.35010  0.98670  0.31450  Biso   1.000  C
  C5       1.0000 0.15900  0.02520  0.18470  Biso   1.000  C
  C6       1.0000 0.45480  0.62350  0.45700  Biso   1.000  C
  H1       1.0000 0.42750  0.59910  0.42710  Biso   1.000  H
  C7       1.0000 0.14700  0.88900  0.22170  Biso   1.000  C
  C8       1.0000 0.29300  0.87260  0.20000  Biso   1.000  C
  H2       1.0000 0.33780  0.81870  0.20390  Biso   1.000  H
  C9       1.0000 0.69950  0.99290  0.16140  Biso   1.000  C
  H3       1.0000 0.69260  0.98540  0.19500  Biso   1.000  H
  C10      1.0000 0.35100  0.11810  0.27670  Biso   1.000  C
  C11      1.0000 0.08190  0.96630  0.21310  Biso   1.000  C
  H4       1.0000 0.98280  0.97980  0.22670  Biso   1.000  H
  C12      1.0000 0.53190  0.69740  0.45660  Biso   1.000  C
  C13      1.0000 0.42630  0.04680  0.28650  Biso   1.000  C
  H5       1.0000 0.52940  0.03710  0.27470  Biso   1.000  H
  C14      1.0000 0.54330  0.69490  0.54210  Biso   1.000  C
  C15      1.0000 0.19740  0.00780  0.33270  Biso   1.000  C
  H6       1.0000 0.14320  0.96750  0.35140  Biso   1.000  H
  C16      1.0000 0.30390  0.00340  0.16670  Biso   1.000  C
  H7       1.0000 0.35920  0.04320  0.14790  Biso   1.000  H
  C17      1.0000 0.58210  0.73390  0.49830  Biso   1.000  C
  H8       1.0000 0.64160  0.78410  0.49780  Biso   1.000  H
  C18      1.0000 0.58200  0.73360  0.58820  Biso   1.000  C
  C19      1.0000 0.41600  0.90360  0.32480  Biso   1.000  C
  C20      1.0000 0.45530  0.61840  0.53910  Biso   1.000  C
  H9       1.0000 0.42440  0.59180  0.56790  Biso   1.000  H
  C21      1.0000 0.20140  0.13350  0.29600  Biso   1.000  C
  H10      1.0000 0.14990  0.18430  0.28810  Biso   1.000  H
  C22      1.0000 0.79740  0.01440  0.34020  Biso   1.000  C
  H11      1.0000 0.80880  0.02230  0.30670  Biso   1.000  H
  C23      1.0000 0.07810  0.82650  0.25500  Biso   1.000  C
  C24      1.0000 0.75900  0.84710  0.15690  Biso   1.000  C
  H12      1.0000 0.86140  0.82530  0.14680  Biso   1.000  H
  H13      1.0000 0.67540  0.81090  0.14460  Biso   1.000  H
  H14      1.0000 0.75430  0.84870  0.19190  Biso   1.000  H
  C25      1.0000 0.74500  0.16240  0.34480  Biso   1.000  C
  H15      1.0000 0.78060  0.15980  0.31150  Biso   1.000  H
  H16      1.0000 0.81330  0.20010  0.36290  Biso   1.000  H
  H17      1.0000 0.63670  0.18330  0.34580  Biso   1.000  H
  C26      1.0000 0.81400  0.08550  0.42050  Biso   1.000  C
  H18      1.0000 0.82330  0.02940  0.43420  Biso   1.000  H
  H19      1.0000 0.74040  0.11860  0.43950  Biso   1.000  H
  H20      1.0000 0.91760  0.11260  0.42060  Biso   1.000  H
  C27      1.0000 0.75900  0.93210  0.08460  Biso   1.000  C
  C28      1.0000 0.66700  0.05600  0.40800  Biso   1.000  C
  H21      1.0000 0.63660  0.99710  0.40610  Biso   1.000  H
  H22      1.0000 0.57170  0.09050  0.41070  Biso   1.000  H
  H23      1.0000 0.73310  0.06490  0.43620  Biso   1.000  H
  H24      1.0000 0.66040  0.91490  0.06930  Biso   1.000  H
  H25      1.0000 0.84270  0.89300  0.07580  Biso   1.000  H
  H26      1.0000 0.78700  0.98840  0.07390  Biso   1.000  H
  C29      1.0000 0.82500  0.96600  0.04600  Biso   1.000  C
  H27      1.0000 0.75730  0.96380  0.06720  Biso   1.000  H
  H28      1.0000 0.91950  0.93220  0.08980  Biso   1.000  H
  Tb3      1.0000 0.72966  0.19386  0.83229  Biso   1.000  Tb
  Tb4      1.0000 0.76941  0.79602  0.66917  Biso   1.000  Tb
  O15      1.0000 0.97920  0.28780  0.87140  Biso   1.000  O
  O16      1.0000 0.55840  0.88120  0.68390  Biso   1.000  O
  O17      1.0000 0.35350  0.23720  0.76480  Biso   1.000  O
  O18      1.0000 0.83280  0.93400  0.64500  Biso   1.000  O
  O19      1.0000 0.98480  0.29330  0.12710  Biso   1.000  O
  O20      1.0000 0.32510  0.83620  0.66010  Biso   1.000  O
  O21      1.0000 0.81580  0.21130  0.08970  Biso   1.000  O
  O22      1.0000 0.17860  0.15590  0.83680  Biso   1.000  O
  O23      1.0000 0.81450  0.20710  0.91150  Biso   1.000  O
  O24      1.0000 0.55990  0.15290  0.77170  Biso   1.000  O
  O25      1.0000 0.93950  0.83320  0.72920  Biso   1.000  O
  O26      1.0000 0.94280  0.10530  0.81580  Biso   1.000  O
  O27      1.0000 0.67300  0.05470  0.85640  Biso   1.000  O
  O28      1.0000 0.15470  0.75290  0.73460  Biso   1.000  O
  N6       1.0000 0.37130  0.92010  0.82480  Biso   1.000  N
  N7       1.0000 0.08520  0.41720  0.99710  Biso   1.000  N
  N8       1.0000 0.12870  0.07190  0.67460  Biso   1.000  N
  N9       1.0000 0.76200  0.06790  0.63780  Biso   1.000  N
  N10      1.0000 0.74900  0.92120  0.86600  Biso   1.000  N
  C30      1.0000 0.92040  0.26330  0.90930  Biso   1.000  C
  C31      1.0000 0.41200  0.88970  0.67610  Biso   1.000  C
  C32      1.0000 0.06900  0.81830  0.74420  Biso   1.000  C
  C33      1.0000 0.14990  0.01330  0.81450  Biso   1.000  C
  C34      1.0000 0.34100  0.97480  0.68470  Biso   1.000  C
  C35      1.0000 0.04520  0.37650  0.95700  Biso   1.000  C
  H29      1.0000 0.07250  0.40090  0.92710  Biso   1.000  H
  C36      1.0000 0.35300  0.11100  0.72170  Biso   1.000  C
  C37      1.0000 0.20700  0.12740  0.70000  Biso   1.000  C
  H30      1.0000 0.16220  0.18130  0.70390  Biso   1.000  H
  C38      1.0000 0.80050  0.00710  0.66140  Biso   1.000  C
  H31      1.0000 0.80740  0.01460  0.69500  Biso   1.000  H
  C39      1.0000 0.14900  0.88190  0.77670  Biso   1.000  C
  C40      1.0000 0.41810  0.03370  0.71310  Biso   1.000  C
  H32      1.0000 0.51720  0.02020  0.72670  Biso   1.000  H
  C41      1.0000 0.96810  0.30260  0.95660  Biso   1.000  C
  C42      1.0000 0.07370  0.95320  0.78650  Biso   1.000  C
  H33      1.0000 0.97060  0.96290  0.77470  Biso   1.000  H
  C43      1.0000 0.95670  0.30510  0.04210  Biso   1.000  C
  C44      1.0000 0.30260  0.99220  0.83270  Biso   1.000  C
  H34      1.0000 0.35680  0.03250  0.85140  Biso   1.000  H
  C45      1.0000 0.19610  0.99660  0.66670  Biso   1.000  C
  H35      1.0000 0.14080  0.95680  0.64790  Biso   1.000  H
  C46      1.0000 0.91790  0.26610  0.99830  Biso   1.000  C
  H36      1.0000 0.85840  0.21590  0.99780  Biso   1.000  H
  C47      1.0000 0.91800  0.26640  0.08820  Biso   1.000  C
  C48      1.0000 0.08400  0.09640  0.82480  Biso   1.000  C
  C49      1.0000 0.04470  0.38160  0.03910  Biso   1.000  C
  H37      1.0000 0.07560  0.40820  0.06790  Biso   1.000  H
  C50      1.0000 0.29860  0.86650  0.79600  Biso   1.000  C
  H38      1.0000 0.35010  0.81570  0.78810  Biso   1.000  H
  C51      1.0000 0.70260  0.98560  0.84020  Biso   1.000  C
  H39      1.0000 0.69120  0.97770  0.80670  Biso   1.000  H
  C52      1.0000 0.42190  0.17350  0.75500  Biso   1.000  C
  C53      1.0000 0.74100  0.15290  0.65690  Biso   1.000  C
  H40      1.0000 0.63860  0.17470  0.64680  Biso   1.000  H
  H41      1.0000 0.82460  0.18910  0.64460  Biso   1.000  H
  H42      1.0000 0.74570  0.15130  0.69190  Biso   1.000  H
  C54      1.0000 0.75500  0.83760  0.84480  Biso   1.000  C
  H43      1.0000 0.71940  0.84020  0.81150  Biso   1.000  H
  H44      1.0000 0.68670  0.79990  0.86290  Biso   1.000  H
  H45      1.0000 0.86330  0.81670  0.84580  Biso   1.000  H
  C55      1.0000 0.68600  0.91450  0.92050  Biso   1.000  C
  H46      1.0000 0.67670  0.97060  0.93420  Biso   1.000  H
  H47      1.0000 0.75960  0.88140  0.93950  Biso   1.000  H
  H48      1.0000 0.58240  0.88740  0.92060  Biso   1.000  H
  C56      1.0000 0.74100  0.06790  0.58460  Biso   1.000  C
  C57      1.0000 0.83300  0.94400  0.90800  Biso   1.000  C
  H49      1.0000 0.86340  0.00290  0.90610  Biso   1.000  H
  H50      1.0000 0.92830  0.90950  0.91070  Biso   1.000  H
  H51      1.0000 0.76690  0.93510  0.93620  Biso   1.000  H
  H52      1.0000 0.83960  0.08510  0.56930  Biso   1.000  H
  H53      1.0000 0.65730  0.10700  0.57580  Biso   1.000  H
  H54      1.0000 0.71300  0.01160  0.57390  Biso   1.000  H
  C58      1.0000 0.67500  0.03400  0.54600  Biso   1.000  C
  H55      1.0000 0.74270  0.03620  0.56720  Biso   1.000  H
  H56      1.0000 0.58050  0.06780  0.58980  Biso   1.000  H
  Tb5      1.0000 0.22966  0.30614  0.16771  Biso   1.000  Tb
  Tb6      1.0000 0.26941  0.70398  0.33083  Biso   1.000  Tb
  O29      1.0000 0.47920  0.21220  0.12860  Biso   1.000  O
  O30      1.0000 0.05840  0.61880  0.31610  Biso   1.000  O
  O31      1.0000 0.85350  0.26280  0.23520  Biso   1.000  O
  O32      1.0000 0.33280  0.56600  0.35500  Biso   1.000  O
  O33      1.0000 0.48480  0.20670  0.87290  Biso   1.000  O
  O34      1.0000 0.82510  0.66380  0.33990  Biso   1.000  O
  O35      1.0000 0.31580  0.28870  0.91030  Biso   1.000  O
  O36      1.0000 0.67860  0.34410  0.16320  Biso   1.000  O
  O37      1.0000 0.31450  0.29290  0.08850  Biso   1.000  O
  O38      1.0000 0.05990  0.34710  0.22830  Biso   1.000  O
  O39      1.0000 0.43950  0.66680  0.27080  Biso   1.000  O
  O40      1.0000 0.44280  0.39470  0.18420  Biso   1.000  O
  O41      1.0000 0.17300  0.44530  0.14360  Biso   1.000  O
  O42      1.0000 0.65470  0.74710  0.26540  Biso   1.000  O
  N11      1.0000 0.87130  0.57990  0.17520  Biso   1.000  N
  N12      1.0000 0.58520  0.08280  0.00290  Biso   1.000  N
  N13      1.0000 0.62870  0.42810  0.32540  Biso   1.000  N
  N14      1.0000 0.26200  0.43210  0.36220  Biso   1.000  N
  N15      1.0000 0.24900  0.57880  0.13400  Biso   1.000  N
  C59      1.0000 0.42040  0.23670  0.09070  Biso   1.000  C
  C60      1.0000 0.91200  0.61030  0.32390  Biso   1.000  C
  C61      1.0000 0.56900  0.68170  0.25580  Biso   1.000  C
  C62      1.0000 0.64990  0.48670  0.18550  Biso   1.000  C
  C63      1.0000 0.84100  0.52520  0.31530  Biso   1.000  C
  C64      1.0000 0.54520  0.12350  0.04300  Biso   1.000  C
  H57      1.0000 0.57250  0.09910  0.07290  Biso   1.000  H
  C65      1.0000 0.85300  0.38900  0.27830  Biso   1.000  C
  C66      1.0000 0.70700  0.37260  0.30000  Biso   1.000  C
  H58      1.0000 0.66220  0.31870  0.29610  Biso   1.000  H
  C67      1.0000 0.30050  0.49290  0.33860  Biso   1.000  C
  H59      1.0000 0.30740  0.48540  0.30500  Biso   1.000  H
  C68      1.0000 0.64900  0.61810  0.22330  Biso   1.000  C
  C69      1.0000 0.91810  0.46630  0.28690  Biso   1.000  C
  H60      1.0000 0.01720  0.47980  0.27330  Biso   1.000  H
  C70      1.0000 0.46810  0.19740  0.04340  Biso   1.000  C
  C71      1.0000 0.57370  0.54680  0.21350  Biso   1.000  C
  H61      1.0000 0.47060  0.53710  0.22530  Biso   1.000  H
  C72      1.0000 0.45670  0.19490  0.95790  Biso   1.000  C
  C73      1.0000 0.80260  0.50780  0.16730  Biso   1.000  C
  H62      1.0000 0.85680  0.46750  0.14860  Biso   1.000  H
  C74      1.0000 0.69610  0.50340  0.33330  Biso   1.000  C
  H63      1.0000 0.64080  0.54320  0.35210  Biso   1.000  H
  C75      1.0000 0.41790  0.23390  0.00170  Biso   1.000  C
  H64      1.0000 0.35840  0.28410  0.00220  Biso   1.000  H
  C76      1.0000 0.41800  0.23360  0.91180  Biso   1.000  C
  C77      1.0000 0.58400  0.40360  0.17520  Biso   1.000  C
  C78      1.0000 0.54470  0.11840  0.96090  Biso   1.000  C
  H65      1.0000 0.57560  0.09180  0.93210  Biso   1.000  H
  C79      1.0000 0.79860  0.63350  0.20400  Biso   1.000  C
  H66      1.0000 0.85010  0.68430  0.21190  Biso   1.000  H
  C80      1.0000 0.20260  0.51440  0.15980  Biso   1.000  C
  H67      1.0000 0.19120  0.52230  0.19330  Biso   1.000  H
  C81      1.0000 0.92190  0.32650  0.24500  Biso   1.000  C
  C82      1.0000 0.24100  0.34710  0.34310  Biso   1.000  C
  H68      1.0000 0.13860  0.32530  0.35320  Biso   1.000  H
  H69      1.0000 0.32460  0.31090  0.35540  Biso   1.000  H
  H70      1.0000 0.24570  0.34870  0.30810  Biso   1.000  H
  C83      1.0000 0.25500  0.66240  0.15520  Biso   1.000  C
  H71      1.0000 0.21940  0.65980  0.18850  Biso   1.000  H
  H72      1.0000 0.18670  0.70010  0.13710  Biso   1.000  H
  H73      1.0000 0.36330  0.68330  0.15420  Biso   1.000  H
  C84      1.0000 0.18600  0.58550  0.07950  Biso   1.000  C
  H74      1.0000 0.17670  0.52940  0.06580  Biso   1.000  H
  H75      1.0000 0.25960  0.61860  0.06050  Biso   1.000  H
  H76      1.0000 0.08240  0.61260  0.07940  Biso   1.000  H
  C85      1.0000 0.24100  0.43210  0.41540  Biso   1.000  C
  C86      1.0000 0.33300  0.55600  0.09200  Biso   1.000  C
  H77      1.0000 0.36340  0.49710  0.09390  Biso   1.000  H
  H78      1.0000 0.42830  0.59050  0.08930  Biso   1.000  H
  H79      1.0000 0.26690  0.56490  0.06380  Biso   1.000  H
  H80      1.0000 0.33960  0.41490  0.43070  Biso   1.000  H
  H81      1.0000 0.15730  0.39300  0.42420  Biso   1.000  H
  H82      1.0000 0.21300  0.48840  0.42610  Biso   1.000  H
  C87      1.0000 0.17500  0.46600  0.45400  Biso   1.000  C
  H83      1.0000 0.24270  0.46380  0.43280  Biso   1.000  H
  H84      1.0000 0.08050  0.43220  0.41020  Biso   1.000  H
  Tb7      1.0000 0.27034  0.69386  0.66771  Biso   1.000  Tb
  Tb8      1.0000 0.23059  0.29602  0.83083  Biso   1.000  Tb
  O43      1.0000 0.02080  0.78780  0.62860  Biso   1.000  O
  O44      1.0000 0.44160  0.38120  0.81610  Biso   1.000  O
  O45      1.0000 0.64650  0.73720  0.73520  Biso   1.000  O
  O46      1.0000 0.16720  0.43400  0.85500  Biso   1.000  O
  O47      1.0000 0.01520  0.79330  0.37290  Biso   1.000  O
  O48      1.0000 0.67490  0.33620  0.83990  Biso   1.000  O
  O49      1.0000 0.18420  0.71130  0.41030  Biso   1.000  O
  O50      1.0000 0.82140  0.65590  0.66320  Biso   1.000  O
  O51      1.0000 0.18550  0.70710  0.58850  Biso   1.000  O
  O52      1.0000 0.44010  0.65290  0.72830  Biso   1.000  O
  O53      1.0000 0.06050  0.33320  0.77080  Biso   1.000  O
  O54      1.0000 0.05720  0.60530  0.68420  Biso   1.000  O
  O55      1.0000 0.32700  0.55470  0.64360  Biso   1.000  O
  O56      1.0000 0.84530  0.25290  0.76540  Biso   1.000  O
  N16      1.0000 0.62870  0.42010  0.67520  Biso   1.000  N
  N17      1.0000 0.91480  0.91720  0.50290  Biso   1.000  N
  N18      1.0000 0.87130  0.57190  0.82540  Biso   1.000  N
  N19      1.0000 0.23800  0.56790  0.86220  Biso   1.000  N
  N20      1.0000 0.25100  0.42120  0.63400  Biso   1.000  N
  C88      1.0000 0.07960  0.76330  0.59070  Biso   1.000  C
  C89      1.0000 0.58800  0.38970  0.82390  Biso   1.000  C
  C90      1.0000 0.93100  0.31830  0.75580  Biso   1.000  C
  C91      1.0000 0.85010  0.51330  0.68550  Biso   1.000  C
  C92      1.0000 0.65900  0.47480  0.81530  Biso   1.000  C
  C93      1.0000 0.95480  0.87650  0.54300  Biso   1.000  C
  H85      1.0000 0.92750  0.90090  0.57290  Biso   1.000  H
  C94      1.0000 0.64700  0.61100  0.77830  Biso   1.000  C
  C95      1.0000 0.79300  0.62740  0.80000  Biso   1.000  C
  H86      1.0000 0.83780  0.68130  0.79610  Biso   1.000  H
  C96      1.0000 0.19950  0.50710  0.83860  Biso   1.000  C
  H87      1.0000 0.19260  0.51460  0.80500  Biso   1.000  H
  C97      1.0000 0.85100  0.38190  0.72330  Biso   1.000  C
  C98      1.0000 0.58190  0.53370  0.78690  Biso   1.000  C
  H88      1.0000 0.48280  0.52020  0.77330  Biso   1.000  H
  C99      1.0000 0.03190  0.80260  0.54340  Biso   1.000  C
  C100     1.0000 0.92630  0.45320  0.71350  Biso   1.000  C
  H89      1.0000 0.02940  0.46290  0.72530  Biso   1.000  H
  C101     1.0000 0.04330  0.80510  0.45790  Biso   1.000  C
  C102     1.0000 0.69740  0.49220  0.66730  Biso   1.000  C
  H90      1.0000 0.64320  0.53250  0.64860  Biso   1.000  H
  C103     1.0000 0.80390  0.49660  0.83330  Biso   1.000  C
  H91      1.0000 0.85920  0.45680  0.85210  Biso   1.000  H
  C104     1.0000 0.08210  0.76610  0.50170  Biso   1.000  C
  H92      1.0000 0.14160  0.71590  0.50220  Biso   1.000  H
  C105     1.0000 0.08200  0.76640  0.41180  Biso   1.000  C
  C106     1.0000 0.91600  0.59640  0.67520  Biso   1.000  C
  C107     1.0000 0.95530  0.88160  0.46090  Biso   1.000  C
  H93      1.0000 0.92440  0.90820  0.43210  Biso   1.000  H
  C108     1.0000 0.70140  0.36650  0.70400  Biso   1.000  C
  H94      1.0000 0.64990  0.31570  0.71190  Biso   1.000  H
  C109     1.0000 0.29740  0.48560  0.65980  Biso   1.000  C
  H95      1.0000 0.30880  0.47770  0.69330  Biso   1.000  H
  C110     1.0000 0.57810  0.67350  0.74500  Biso   1.000  C
  C111     1.0000 0.25900  0.65290  0.84310  Biso   1.000  C
  H96      1.0000 0.36140  0.67470  0.85320  Biso   1.000  H
  H97      1.0000 0.17540  0.68910  0.85540  Biso   1.000  H
  H98      1.0000 0.25430  0.65130  0.80810  Biso   1.000  H
  C112     1.0000 0.24500  0.33760  0.65520  Biso   1.000  C
  H99      1.0000 0.28060  0.34020  0.68850  Biso   1.000  H
  H100     1.0000 0.31330  0.29990  0.63710  Biso   1.000  H
  H101     1.0000 0.13670  0.31670  0.65420  Biso   1.000  H
  C113     1.0000 0.31400  0.41450  0.57950  Biso   1.000  C
  H102     1.0000 0.32330  0.47060  0.56580  Biso   1.000  H
  H103     1.0000 0.24040  0.38140  0.56050  Biso   1.000  H
  H104     1.0000 0.41760  0.38740  0.57940  Biso   1.000  H
  C114     1.0000 0.25900  0.56790  0.91540  Biso   1.000  C
  C115     1.0000 0.16700  0.44400  0.59200  Biso   1.000  C
  H105     1.0000 0.13660  0.50290  0.59390  Biso   1.000  H
  H106     1.0000 0.07170  0.40950  0.58930  Biso   1.000  H
  H107     1.0000 0.23310  0.43510  0.56380  Biso   1.000  H
  H108     1.0000 0.16040  0.58510  0.93070  Biso   1.000  H
  H109     1.0000 0.34270  0.60700  0.92420  Biso   1.000  H
  H110     1.0000 0.28700  0.51160  0.92610  Biso   1.000  H
  C116     1.0000 0.32500  0.53400  0.95400  Biso   1.000  C
  H111     1.0000 0.25730  0.53620  0.93280  Biso   1.000  H
  H112     1.0000 0.41950  0.56780  0.91020  Biso   1.000  H
