data_image0
_cell_length_a       15.33
_cell_length_b       15.453
_cell_length_c       16.66
_cell_angle_alpha    90
_cell_angle_beta     90
_cell_angle_gamma    90

_symmetry_space_group_name_H-M    P 1
_symmetry_int_tables_number       1

loop_
  _symmetry_equiv_pos_as_xyz
  'x, y, z'

loop_
  _atom_site_label
  _atom_site_occupancy
  _atom_site_fract_x
  _atom_site_fract_y
  _atom_site_fract_z
  _atom_site_thermal_displace_type
  _atom_site_B_iso_or_equiv
  _atom_site_type_symbol
  Na1      1.0000 0.80439  0.79367  0.78314  Biso   1.000  Na
  Na2      1.0000 0.69561  0.20633  0.28314  Biso   1.000  Na
  Na3      1.0000 0.19561  0.29367  0.71686  Biso   1.000  Na
  Na4      1.0000 0.30439  0.70633  0.21686  Biso   1.000  Na
  Ni1      1.0000 0.39161  0.09381  0.89981  Biso   1.000  Ni
  Ni2      1.0000 0.10839  0.90619  0.39981  Biso   1.000  Ni
  Ni3      1.0000 0.60839  0.59381  0.60019  Biso   1.000  Ni
  Ni4      1.0000 0.89161  0.40619  0.10019  Biso   1.000  Ni
  H1       1.0000 0.64760  0.05150  0.73570  Biso   1.000  H
  H2       1.0000 0.64120  0.07090  0.82800  Biso   1.000  H
  H3       1.0000 0.63500  0.92190  0.85820  Biso   1.000  H
  H4       1.0000 0.64970  0.88810  0.69230  Biso   1.000  H
  H5       1.0000 0.50500  0.84020  0.69130  Biso   1.000  H
  H6       1.0000 0.51540  0.98580  0.66480  Biso   1.000  H
  H7       1.0000 0.42980  0.97030  0.71430  Biso   1.000  H
  H8       1.0000 0.21090  0.85660  0.98830  Biso   1.000  H
  H9       1.0000 0.30490  0.85120  0.95150  Biso   1.000  H
  H10      1.0000 0.36740  0.86310  0.07670  Biso   1.000  H
  H11      1.0000 0.19640  0.87110  0.14260  Biso   1.000  H
  H12      1.0000 0.22350  0.01440  0.17680  Biso   1.000  H
  H13      1.0000 0.16100  0.00020  0.05140  Biso   1.000  H
  H14      1.0000 0.22620  0.07850  0.04930  Biso   1.000  H
  H15      1.0000 0.43850  0.26180  0.13940  Biso   1.000  H
  H16      1.0000 0.41710  0.16340  0.12690  Biso   1.000  H
  H17      1.0000 0.56680  0.12950  0.11860  Biso   1.000  H
  H18      1.0000 0.60000  0.30770  0.14640  Biso   1.000  H
  H19      1.0000 0.65030  0.32120  0.01640  Biso   1.000  H
  H20      1.0000 0.52020  0.30110  0.94130  Biso   1.000  H
  H21      1.0000 0.50170  0.34810  0.02320  Biso   1.000  H
  H22      1.0000 0.47550  0.95930  0.85900  Biso   1.000  H
  H23      1.0000 0.76610  0.88960  0.81250  Biso   1.000  H
  H24      1.0000 0.62360  0.75480  0.74660  Biso   1.000  H
  H25      1.0000 0.47390  0.89090  0.83710  Biso   1.000  H
  H26      1.0000 0.37660  0.01540  0.02970  Biso   1.000  H
  H27      1.0000 0.32250  0.73160  0.04640  Biso   1.000  H
  H28      1.0000 0.27550  0.89100  0.25460  Biso   1.000  H
  H29      1.0000 0.36710  0.02280  0.09360  Biso   1.000  H
  H30      1.0000 0.53210  0.14200  0.97360  Biso   1.000  H
  H31      1.0000 0.52550  0.13700  0.24340  Biso   1.000  H
  H32      1.0000 0.73600  0.24810  0.11700  Biso   1.000  H
  H33      1.0000 0.60100  0.16630  0.97210  Biso   1.000  H
  H34      1.0000 0.85240  0.94850  0.23570  Biso   1.000  H
  H35      1.0000 0.85880  0.92910  0.32800  Biso   1.000  H
  H36      1.0000 0.86500  0.07810  0.35820  Biso   1.000  H
  H37      1.0000 0.85030  0.11190  0.19230  Biso   1.000  H
  H38      1.0000 0.99500  0.15980  0.19130  Biso   1.000  H
  H39      1.0000 0.98460  0.01420  0.16480  Biso   1.000  H
  H40      1.0000 0.07020  0.02970  0.21430  Biso   1.000  H
  H41      1.0000 0.28910  0.14340  0.48830  Biso   1.000  H
  H42      1.0000 0.19510  0.14880  0.45150  Biso   1.000  H
  H43      1.0000 0.13260  0.13690  0.57670  Biso   1.000  H
  H44      1.0000 0.30360  0.12890  0.64260  Biso   1.000  H
  H45      1.0000 0.27650  0.98560  0.67680  Biso   1.000  H
  H46      1.0000 0.33900  0.99980  0.55140  Biso   1.000  H
  H47      1.0000 0.27380  0.92150  0.54930  Biso   1.000  H
  H48      1.0000 0.06150  0.73820  0.63940  Biso   1.000  H
  H49      1.0000 0.08290  0.83660  0.62690  Biso   1.000  H
  H50      1.0000 0.93320  0.87050  0.61860  Biso   1.000  H
  H51      1.0000 0.90000  0.69230  0.64640  Biso   1.000  H
  H52      1.0000 0.84970  0.67880  0.51640  Biso   1.000  H
  H53      1.0000 0.97980  0.69890  0.44130  Biso   1.000  H
  H54      1.0000 0.99830  0.65190  0.52320  Biso   1.000  H
  H55      1.0000 0.02450  0.04070  0.35900  Biso   1.000  H
  H56      1.0000 0.73390  0.11040  0.31250  Biso   1.000  H
  H57      1.0000 0.87640  0.24520  0.24660  Biso   1.000  H
  H58      1.0000 0.02610  0.10910  0.33710  Biso   1.000  H
  H59      1.0000 0.12340  0.98460  0.52970  Biso   1.000  H
  H60      1.0000 0.17750  0.26840  0.54640  Biso   1.000  H
  H61      1.0000 0.22450  0.10900  0.75460  Biso   1.000  H
  H62      1.0000 0.13290  0.97720  0.59360  Biso   1.000  H
  H63      1.0000 0.96790  0.85800  0.47360  Biso   1.000  H
  H64      1.0000 0.97450  0.86300  0.74340  Biso   1.000  H
  H65      1.0000 0.76400  0.75190  0.61700  Biso   1.000  H
  H66      1.0000 0.89900  0.83370  0.47210  Biso   1.000  H
  H67      1.0000 0.35240  0.55150  0.76430  Biso   1.000  H
  H68      1.0000 0.35880  0.57090  0.67200  Biso   1.000  H
  H69      1.0000 0.36500  0.42190  0.64180  Biso   1.000  H
  H70      1.0000 0.35030  0.38810  0.80770  Biso   1.000  H
  H71      1.0000 0.49500  0.34020  0.80870  Biso   1.000  H
  H72      1.0000 0.48460  0.48580  0.83520  Biso   1.000  H
  H73      1.0000 0.57020  0.47030  0.78570  Biso   1.000  H
  H74      1.0000 0.78910  0.35660  0.51170  Biso   1.000  H
  H75      1.0000 0.69510  0.35120  0.54850  Biso   1.000  H
  H76      1.0000 0.63260  0.36310  0.42330  Biso   1.000  H
  H77      1.0000 0.80360  0.37110  0.35740  Biso   1.000  H
  H78      1.0000 0.77650  0.51440  0.32320  Biso   1.000  H
  H79      1.0000 0.83900  0.50020  0.44860  Biso   1.000  H
  H80      1.0000 0.77380  0.57850  0.45070  Biso   1.000  H
  H81      1.0000 0.56150  0.76180  0.36060  Biso   1.000  H
  H82      1.0000 0.58290  0.66340  0.37310  Biso   1.000  H
  H83      1.0000 0.43320  0.62950  0.38140  Biso   1.000  H
  H84      1.0000 0.40000  0.80770  0.35360  Biso   1.000  H
  H85      1.0000 0.34970  0.82120  0.48360  Biso   1.000  H
  H86      1.0000 0.47980  0.80110  0.55870  Biso   1.000  H
  H87      1.0000 0.49830  0.84810  0.47680  Biso   1.000  H
  H88      1.0000 0.52450  0.45930  0.64100  Biso   1.000  H
  H89      1.0000 0.23390  0.38960  0.68750  Biso   1.000  H
  H90      1.0000 0.37640  0.25480  0.75340  Biso   1.000  H
  H91      1.0000 0.52610  0.39090  0.66290  Biso   1.000  H
  H92      1.0000 0.62340  0.51540  0.47030  Biso   1.000  H
  H93      1.0000 0.67750  0.23160  0.45360  Biso   1.000  H
  H94      1.0000 0.72450  0.39100  0.24540  Biso   1.000  H
  H95      1.0000 0.63290  0.52280  0.40640  Biso   1.000  H
  H96      1.0000 0.46790  0.64200  0.52640  Biso   1.000  H
  H97      1.0000 0.47450  0.63700  0.25660  Biso   1.000  H
  H98      1.0000 0.26400  0.74810  0.38300  Biso   1.000  H
  H99      1.0000 0.39900  0.66630  0.52790  Biso   1.000  H
  H100     1.0000 0.14760  0.44850  0.26430  Biso   1.000  H
  H101     1.0000 0.14120  0.42910  0.17200  Biso   1.000  H
  H102     1.0000 0.13500  0.57810  0.14180  Biso   1.000  H
  H103     1.0000 0.14970  0.61190  0.30770  Biso   1.000  H
  H104     1.0000 0.00500  0.65980  0.30870  Biso   1.000  H
  H105     1.0000 0.01540  0.51420  0.33520  Biso   1.000  H
  H106     1.0000 0.92980  0.52970  0.28570  Biso   1.000  H
  H107     1.0000 0.71090  0.64340  0.01170  Biso   1.000  H
  H108     1.0000 0.80490  0.64880  0.04850  Biso   1.000  H
  H109     1.0000 0.86740  0.63690  0.92330  Biso   1.000  H
  H110     1.0000 0.69640  0.62890  0.85740  Biso   1.000  H
  H111     1.0000 0.72350  0.48560  0.82320  Biso   1.000  H
  H112     1.0000 0.66100  0.49980  0.94860  Biso   1.000  H
  H113     1.0000 0.72620  0.42150  0.95070  Biso   1.000  H
  H114     1.0000 0.93850  0.23820  0.86060  Biso   1.000  H
  H115     1.0000 0.91710  0.33660  0.87310  Biso   1.000  H
  H116     1.0000 0.06680  0.37050  0.88140  Biso   1.000  H
  H117     1.0000 0.10000  0.19230  0.85360  Biso   1.000  H
  H118     1.0000 0.15030  0.17880  0.98360  Biso   1.000  H
  H119     1.0000 0.02020  0.19890  0.05870  Biso   1.000  H
  H120     1.0000 0.00170  0.15190  0.97680  Biso   1.000  H
  H121     1.0000 0.97550  0.54070  0.14100  Biso   1.000  H
  H122     1.0000 0.26610  0.61040  0.18750  Biso   1.000  H
  H123     1.0000 0.12360  0.74520  0.25340  Biso   1.000  H
  H124     1.0000 0.97390  0.60910  0.16290  Biso   1.000  H
  H125     1.0000 0.87660  0.48460  0.97030  Biso   1.000  H
  H126     1.0000 0.82250  0.76840  0.95360  Biso   1.000  H
  H127     1.0000 0.77550  0.60900  0.74540  Biso   1.000  H
  H128     1.0000 0.86710  0.47720  0.90640  Biso   1.000  H
  H129     1.0000 0.03210  0.35800  0.02640  Biso   1.000  H
  H130     1.0000 0.02550  0.36300  0.75660  Biso   1.000  H
  H131     1.0000 0.23600  0.25190  0.88300  Biso   1.000  H
  H132     1.0000 0.10100  0.33370  0.02790  Biso   1.000  H
  C1       1.0000 0.52400  0.03330  0.77980  Biso   1.000  C
  C2       1.0000 0.62250  0.03190  0.78590  Biso   1.000  C
  C3       1.0000 0.65490  0.93900  0.80460  Biso   1.000  C
  C4       1.0000 0.62290  0.87540  0.74430  Biso   1.000  C
  C5       1.0000 0.52240  0.87840  0.73550  Biso   1.000  C
  C6       1.0000 0.49300  0.96890  0.71690  Biso   1.000  C
  C7       1.0000 0.49280  0.12690  0.75790  Biso   1.000  C
  C8       1.0000 0.27150  0.97330  0.98440  Biso   1.000  C
  C9       1.0000 0.27040  0.87710  0.99410  Biso   1.000  C
  C10      1.0000 0.30540  0.84770  0.07340  Biso   1.000  C
  C11      1.0000 0.25710  0.89080  0.14270  Biso   1.000  C
  C12      1.0000 0.25860  0.98870  0.13380  Biso   1.000  C
  C13      1.0000 0.22210  0.01600  0.05420  Biso   1.000  C
  C14      1.0000 0.23170  0.00330  0.90160  Biso   1.000  C
  C15      1.0000 0.45700  0.22270  0.02220  Biso   1.000  C
  C16      1.0000 0.45750  0.20920  0.11290  Biso   1.000  C
  C17      1.0000 0.54950  0.18530  0.14160  Biso   1.000  C
  C18      1.0000 0.61390  0.25410  0.11770  Biso   1.000  C
  C19      1.0000 0.61210  0.27190  0.02770  Biso   1.000  C
  C20      1.0000 0.52020  0.29390  0.99920  Biso   1.000  C
  C21      1.0000 0.36090  0.24610  0.99530  Biso   1.000  C
  C22      1.0000 0.97600  0.96670  0.27980  Biso   1.000  C
  C23      1.0000 0.87750  0.96810  0.28590  Biso   1.000  C
  C24      1.0000 0.84510  0.06100  0.30460  Biso   1.000  C
  C25      1.0000 0.87710  0.12460  0.24430  Biso   1.000  C
  C26      1.0000 0.97760  0.12160  0.23550  Biso   1.000  C
  C27      1.0000 0.00700  0.03110  0.21690  Biso   1.000  C
  C28      1.0000 0.00720  0.87310  0.25790  Biso   1.000  C
  C29      1.0000 0.22850  0.02670  0.48440  Biso   1.000  C
  C30      1.0000 0.22960  0.12290  0.49410  Biso   1.000  C
  C31      1.0000 0.19460  0.15230  0.57340  Biso   1.000  C
  C32      1.0000 0.24290  0.10920  0.64270  Biso   1.000  C
  C33      1.0000 0.24140  0.01130  0.63380  Biso   1.000  C
  C34      1.0000 0.27790  0.98400  0.55420  Biso   1.000  C
  C35      1.0000 0.26830  0.99670  0.40160  Biso   1.000  C
  C36      1.0000 0.04300  0.77730  0.52220  Biso   1.000  C
  C37      1.0000 0.04250  0.79080  0.61290  Biso   1.000  C
  C38      1.0000 0.95050  0.81470  0.64160  Biso   1.000  C
  C39      1.0000 0.88610  0.74590  0.61770  Biso   1.000  C
  C40      1.0000 0.88790  0.72810  0.52770  Biso   1.000  C
  C41      1.0000 0.97980  0.70610  0.49920  Biso   1.000  C
  C42      1.0000 0.13910  0.75390  0.49530  Biso   1.000  C
  C43      1.0000 0.47600  0.53330  0.72020  Biso   1.000  C
  C44      1.0000 0.37750  0.53190  0.71410  Biso   1.000  C
  C45      1.0000 0.34510  0.43900  0.69540  Biso   1.000  C
  C46      1.0000 0.37710  0.37540  0.75570  Biso   1.000  C
  C47      1.0000 0.47760  0.37840  0.76450  Biso   1.000  C
  C48      1.0000 0.50700  0.46890  0.78310  Biso   1.000  C
  C49      1.0000 0.50720  0.62690  0.74210  Biso   1.000  C
  C50      1.0000 0.72850  0.47330  0.51560  Biso   1.000  C
  C51      1.0000 0.72960  0.37710  0.50590  Biso   1.000  C
  C52      1.0000 0.69460  0.34770  0.42660  Biso   1.000  C
  C53      1.0000 0.74290  0.39080  0.35730  Biso   1.000  C
  C54      1.0000 0.74140  0.48870  0.36620  Biso   1.000  C
  C55      1.0000 0.77790  0.51600  0.44580  Biso   1.000  C
  C56      1.0000 0.76830  0.50330  0.59840  Biso   1.000  C
  C57      1.0000 0.54300  0.72270  0.47780  Biso   1.000  C
  C58      1.0000 0.54250  0.70920  0.38710  Biso   1.000  C
  C59      1.0000 0.45050  0.68530  0.35840  Biso   1.000  C
  C60      1.0000 0.38610  0.75410  0.38230  Biso   1.000  C
  C61      1.0000 0.38790  0.77190  0.47230  Biso   1.000  C
  C62      1.0000 0.47980  0.79390  0.50080  Biso   1.000  C
  C63      1.0000 0.63910  0.74610  0.50470  Biso   1.000  C
  C64      1.0000 0.02400  0.46670  0.22020  Biso   1.000  C
  C65      1.0000 0.12250  0.46810  0.21410  Biso   1.000  C
  C66      1.0000 0.15490  0.56100  0.19540  Biso   1.000  C
  C67      1.0000 0.12290  0.62460  0.25570  Biso   1.000  C
  C68      1.0000 0.02240  0.62160  0.26450  Biso   1.000  C
  C69      1.0000 0.99300  0.53110  0.28310  Biso   1.000  C
  C70      1.0000 0.99280  0.37310  0.24210  Biso   1.000  C
  C71      1.0000 0.77150  0.52670  0.01560  Biso   1.000  C
  C72      1.0000 0.77040  0.62290  0.00590  Biso   1.000  C
  C73      1.0000 0.80540  0.65230  0.92660  Biso   1.000  C
  C74      1.0000 0.75710  0.60920  0.85730  Biso   1.000  C
  C75      1.0000 0.75860  0.51130  0.86620  Biso   1.000  C
  C76      1.0000 0.72210  0.48400  0.94580  Biso   1.000  C
  C77      1.0000 0.73170  0.49670  0.09840  Biso   1.000  C
  C78      1.0000 0.95700  0.27730  0.97780  Biso   1.000  C
  C79      1.0000 0.95750  0.29080  0.88710  Biso   1.000  C
  C80      1.0000 0.04950  0.31470  0.85840  Biso   1.000  C
  C81      1.0000 0.11390  0.24590  0.88230  Biso   1.000  C
  C82      1.0000 0.11210  0.22810  0.97230  Biso   1.000  C
  C83      1.0000 0.02020  0.20610  0.00080  Biso   1.000  C
  C84      1.0000 0.86090  0.25390  0.00470  Biso   1.000  C
  O1       1.0000 0.48460  0.01150  0.85700  Biso   1.000  O
  O2       1.0000 0.74820  0.93840  0.80230  Biso   1.000  O
  O3       1.0000 0.65090  0.79240  0.77060  Biso   1.000  O
  O4       1.0000 0.48200  0.84960  0.80720  Biso   1.000  O
  O5       1.0000 0.43290  0.15920  0.80280  Biso   1.000  O
  O6       1.0000 0.52590  0.16210  0.69950  Biso   1.000  O
  O7       1.0000 0.36150  0.00340  0.98380  Biso   1.000  O
  O8       1.0000 0.29670  0.75630  0.08290  Biso   1.000  O
  O9       1.0000 0.29780  0.86460  0.21720  Biso   1.000  O
  O10      1.0000 0.34540  0.02190  0.13860  Biso   1.000  O
  O11      1.0000 0.27940  0.04460  0.85230  Biso   1.000  O
  O12      1.0000 0.15450  0.98380  0.89170  Biso   1.000  O
  O13      1.0000 0.47950  0.14300  0.98230  Biso   1.000  O
  O14      1.0000 0.55150  0.18050  0.22850  Biso   1.000  O
  O15      1.0000 0.69780  0.22410  0.14340  Biso   1.000  O
  O16      1.0000 0.64230  0.19850  0.98180  Biso   1.000  O
  O17      1.0000 0.32530  0.19390  0.94600  Biso   1.000  O
  O18      1.0000 0.32750  0.31050  0.02470  Biso   1.000  O
  O19      1.0000 0.01540  0.98850  0.35700  Biso   1.000  O
  O20      1.0000 0.75180  0.06160  0.30230  Biso   1.000  O
  O21      1.0000 0.84910  0.20760  0.27060  Biso   1.000  O
  O22      1.0000 0.01800  0.15040  0.30720  Biso   1.000  O
  O23      1.0000 0.06710  0.84080  0.30280  Biso   1.000  O
  O24      1.0000 0.97410  0.83790  0.19950  Biso   1.000  O
  O25      1.0000 0.13850  0.99660  0.48380  Biso   1.000  O
  O26      1.0000 0.20330  0.24370  0.58290  Biso   1.000  O
  O27      1.0000 0.20220  0.13540  0.71720  Biso   1.000  O
  O28      1.0000 0.15460  0.97810  0.63860  Biso   1.000  O
  O29      1.0000 0.22060  0.95540  0.35230  Biso   1.000  O
  O30      1.0000 0.34550  0.01620  0.39170  Biso   1.000  O
  O31      1.0000 0.02050  0.85700  0.48230  Biso   1.000  O
  O32      1.0000 0.94850  0.81950  0.72850  Biso   1.000  O
  O33      1.0000 0.80220  0.77590  0.64340  Biso   1.000  O
  O34      1.0000 0.85770  0.80150  0.48180  Biso   1.000  O
  O35      1.0000 0.17470  0.80610  0.44600  Biso   1.000  O
  O36      1.0000 0.17250  0.68950  0.52470  Biso   1.000  O
  O37      1.0000 0.51540  0.51150  0.64300  Biso   1.000  O
  O38      1.0000 0.25180  0.43840  0.69770  Biso   1.000  O
  O39      1.0000 0.34910  0.29240  0.72940  Biso   1.000  O
  O40      1.0000 0.51800  0.34960  0.69280  Biso   1.000  O
  O41      1.0000 0.56710  0.65920  0.69720  Biso   1.000  O
  O42      1.0000 0.47410  0.66210  0.80050  Biso   1.000  O
  O43      1.0000 0.63850  0.50340  0.51620  Biso   1.000  O
  O44      1.0000 0.70330  0.25630  0.41710  Biso   1.000  O
  O45      1.0000 0.70220  0.36460  0.28280  Biso   1.000  O
  O46      1.0000 0.65460  0.52190  0.36140  Biso   1.000  O
  O47      1.0000 0.72060  0.54460  0.64770  Biso   1.000  O
  O48      1.0000 0.84550  0.48380  0.60830  Biso   1.000  O
  O49      1.0000 0.52050  0.64300  0.51770  Biso   1.000  O
  O50      1.0000 0.44850  0.68050  0.27150  Biso   1.000  O
  O51      1.0000 0.30220  0.72410  0.35660  Biso   1.000  O
  O52      1.0000 0.35770  0.69850  0.51820  Biso   1.000  O
  O53      1.0000 0.67470  0.69390  0.55400  Biso   1.000  O
  O54      1.0000 0.67250  0.81050  0.47530  Biso   1.000  O
  O55      1.0000 0.98460  0.48850  0.14300  Biso   1.000  O
  O56      1.0000 0.24820  0.56160  0.19770  Biso   1.000  O
  O57      1.0000 0.15090  0.70760  0.22940  Biso   1.000  O
  O58      1.0000 0.98200  0.65040  0.19280  Biso   1.000  O
  O59      1.0000 0.93290  0.34080  0.19720  Biso   1.000  O
  O60      1.0000 0.02590  0.33790  0.30050  Biso   1.000  O
  O61      1.0000 0.86150  0.49660  0.01620  Biso   1.000  O
  O62      1.0000 0.79670  0.74370  0.91710  Biso   1.000  O
  O63      1.0000 0.79780  0.63540  0.78280  Biso   1.000  O
  O64      1.0000 0.84540  0.47810  0.86140  Biso   1.000  O
  O65      1.0000 0.77940  0.45540  0.14770  Biso   1.000  O
  O66      1.0000 0.65450  0.51620  0.10830  Biso   1.000  O
  O67      1.0000 0.97950  0.35700  0.01770  Biso   1.000  O
  O68      1.0000 0.05150  0.31950  0.77150  Biso   1.000  O
  O69      1.0000 0.19780  0.27590  0.85660  Biso   1.000  O
  O70      1.0000 0.14230  0.30150  0.01820  Biso   1.000  O
  O71      1.0000 0.82530  0.30610  0.05400  Biso   1.000  O
  O72      1.0000 0.82750  0.18950  0.97530  Biso   1.000  O
