data_image0
_cell_length_a       14.1512
_cell_length_b       14.5076
_cell_length_c       25.8073
_cell_angle_alpha    90
_cell_angle_beta     92.166
_cell_angle_gamma    90

_symmetry_space_group_name_H-M    "P 1"
_symmetry_int_tables_number       1

loop_
  _symmetry_equiv_pos_as_xyz
  'x, y, z'

loop_
  _atom_site_label
  _atom_site_occupancy
  _atom_site_fract_x
  _atom_site_fract_y
  _atom_site_fract_z
  _atom_site_thermal_displace_type
  _atom_site_B_iso_or_equiv
  _atom_site_type_symbol
  N1       1.0000 0.28870  0.01690  0.77000  Biso   1.000  N
  C1       1.0000 0.35780  0.06910  0.74260  Biso   1.000  C
  H1       1.0000 0.36290  0.04390  0.70850  Biso   1.000  H
  H2       1.0000 0.41820  0.06570  0.76080  Biso   1.000  H
  H3       1.0000 0.33820  0.13240  0.74000  Biso   1.000  H
  C2       1.0000 0.25660  0.93060  0.74950  Biso   1.000  C
  H4       1.0000 0.30990  0.89100  0.74470  Biso   1.000  H
  H5       1.0000 0.22310  0.93990  0.71690  Biso   1.000  H
  H6       1.0000 0.21520  0.90270  0.77360  Biso   1.000  H
  C3       1.0000 0.25000  0.04800  0.81760  Biso   1.000  C
  C4       1.0000 0.18140  0.98850  0.84070  Biso   1.000  C
  H7       1.0000 0.15620  0.94670  0.81490  Biso   1.000  H
  H8       1.0000 0.13080  0.02360  0.85470  Biso   1.000  H
  H9       1.0000 0.21310  0.95420  0.86810  Biso   1.000  H
  O1       1.0000 0.28330  0.12620  0.83240  Biso   1.000  O
  Cd1      1.0000 0.83713  0.20975  0.37585  Biso   1.000  Cd
  Cd2      1.0000 0.74983  0.29244  0.50026  Biso   1.000  Cd
  Cd3      1.0000 0.66325  0.37456  0.62474  Biso   1.000  Cd
  Cd4      1.0000 0.24669  0.05431  0.01853  Biso   1.000  Cd
  Cd5      1.0000 0.32825  0.16586  0.91143  Biso   1.000  Cd
  O2       1.0000 0.70540  0.27820  0.35420  Biso   1.000  O
  O3       1.0000 0.65530  0.32590  0.43150  Biso   1.000  O
  O4       1.0000 0.20000  0.65970  0.53980  Biso   1.000  O
  O5       1.0000 0.06250  0.61560  0.56890  Biso   1.000  O
  O6       1.0000 0.87330  0.37870  0.47110  Biso   1.000  O
  O7       1.0000 0.92690  0.32940  0.39560  Biso   1.000  O
  O8       1.0000 0.33020  0.15270  0.06670  Biso   1.000  O
  O9       1.0000 0.38150  0.20280  0.99290  Biso   1.000  O
  O10      1.0000 0.62380  0.44670  0.98920  Biso   1.000  O
  O11      1.0000 0.66790  0.51640  0.06020  Biso   1.000  O
  O12      1.0000 0.84570  0.26040  0.56950  Biso   1.000  O
  O13      1.0000 0.79730  0.30270  0.64550  Biso   1.000  O
  O14      1.0000 0.81880  0.47420  0.91350  Biso   1.000  O
  O15      1.0000 0.86510  0.43650  0.99360  Biso   1.000  O
  O16      1.0000 0.10910  0.18090  0.01670  Biso   1.000  O
  O17      1.0000 0.18550  0.13900  0.94950  Biso   1.000  O
  O18      1.0000 0.57100  0.25800  0.60370  Biso   1.000  O
  O19      1.0000 0.62720  0.20700  0.52980  Biso   1.000  O
  O20      1.0000 0.43670  0.97200  0.42940  Biso   1.000  O
  O21      1.0000 0.30230  0.92140  0.45890  Biso   1.000  O
  O22      1.0000 0.24640  0.45320  0.38350  Biso   1.000  O
  O23      1.0000 0.48110  0.37430  0.19840  Biso   1.000  O
  O24      1.0000 0.99770  0.27170  0.79880  Biso   1.000  O
  O25      1.0000 0.25090  0.13240  0.61550  Biso   1.000  O
  O26      1.0000 0.78350  0.06680  0.35020  Biso   1.000  O
  O27      1.0000 0.72340  0.52170  0.64920  Biso   1.000  O
  O28      1.0000 0.90900  0.20450  0.30050  Biso   1.000  O
  H10      1.0000 0.94080  0.25360  0.29670  Biso   1.000  H
  H11      1.0000 0.94600  0.15840  0.30160  Biso   1.000  H
  O29      1.0000 0.59690  0.38350  0.70350  Biso   1.000  O
  H12      1.0000 0.56560  0.33450  0.70820  Biso   1.000  H
  H13      1.0000 0.64040  0.38840  0.72700  Biso   1.000  H
  O30      1.0000 0.29380  0.31120  0.88660  Biso   1.000  O
  H14      1.0000 0.32190  0.32400  0.85900  Biso   1.000  H
  H15      1.0000 0.23450  0.31630  0.88120  Biso   1.000  H
  O31      1.0000 0.48290  0.16720  0.89170  Biso   1.000  O
  H16      1.0000 0.48970  0.19780  0.86390  Biso   1.000  H
  H17      1.0000 0.51470  0.19250  0.91640  Biso   1.000  H
  N2       1.0000 0.74640  0.94090  0.39990  Biso   1.000  N
  N3       1.0000 0.74760  0.64340  0.59850  Biso   1.000  N
  C5       1.0000 0.64500  0.31570  0.38290  Biso   1.000  C
  C6       1.0000 0.55430  0.34660  0.35740  Biso   1.000  C
  C7       1.0000 0.53160  0.32350  0.30730  Biso   1.000  C
  H18      1.0000 0.57370  0.28900  0.28850  Biso   1.000  H
  C8       1.0000 0.44480  0.35130  0.28380  Biso   1.000  C
  C9       1.0000 0.38580  0.40650  0.31220  Biso   1.000  C
  H19      1.0000 0.32990  0.42850  0.29660  Biso   1.000  H
  C10      1.0000 0.40900  0.43010  0.36470  Biso   1.000  C
  C11      1.0000 0.49140  0.39920  0.38650  Biso   1.000  C
  H20      1.0000 0.50680  0.41280  0.42100  Biso   1.000  H
  C12      1.0000 0.34010  0.48750  0.39480  Biso   1.000  C
  H21      1.0000 0.35510  0.48290  0.43170  Biso   1.000  H
  H22      1.0000 0.34430  0.55170  0.38470  Biso   1.000  H
  C13      1.0000 0.17650  0.47440  0.41780  Biso   1.000  C
  C14      1.0000 0.18530  0.53630  0.45690  Biso   1.000  C
  H23      1.0000 0.24070  0.57060  0.46100  Biso   1.000  H
  C15      1.0000 0.11290  0.54940  0.49110  Biso   1.000  C
  C16      1.0000 0.12600  0.61350  0.53540  Biso   1.000  C
  C17      1.0000 0.03130  0.49540  0.48400  Biso   1.000  C
  H24      1.0000 0.98280  0.50080  0.50710  Biso   1.000  H
  C18      1.0000 0.02180  0.43350  0.44230  Biso   1.000  C
  C19      1.0000 0.93330  0.37420  0.43610  Biso   1.000  C
  C20      1.0000 0.09410  0.42480  0.41080  Biso   1.000  C
  H25      1.0000 0.08840  0.38390  0.38310  Biso   1.000  H
  C21      1.0000 0.43100  0.28920  0.12140  Biso   1.000  C
  H26      1.0000 0.39340  0.25070  0.14070  Biso   1.000  H
  C22      1.0000 0.43450  0.27710  0.06760  Biso   1.000  C
  C23      1.0000 0.37830  0.20370  0.04060  Biso   1.000  C
  C24      1.0000 0.49400  0.33360  0.04160  Biso   1.000  C
  H27      1.0000 0.49770  0.32630  0.00590  Biso   1.000  H
  C25      1.0000 0.55050  0.40300  0.06650  Biso   1.000  C
  C26      1.0000 0.61760  0.45650  0.03630  Biso   1.000  C
  C27      1.0000 0.53760  0.41450  0.11860  Biso   1.000  C
  H28      1.0000 0.56760  0.46320  0.13600  Biso   1.000  H
  C28      1.0000 0.48250  0.35680  0.14530  Biso   1.000  C
  C29      1.0000 0.42120  0.32700  0.22960  Biso   1.000  C
  H29      1.0000 0.42850  0.26120  0.22450  Biso   1.000  H
  H30      1.0000 0.35610  0.34340  0.22080  Biso   1.000  H
  C30      1.0000 0.85300  0.26700  0.61500  Biso   1.000  C
  C31      1.0000 0.94240  0.22810  0.64170  Biso   1.000  C
  C32      1.0000 0.95720  0.23410  0.69430  Biso   1.000  C
  H31      1.0000 0.91060  0.25960  0.71440  Biso   1.000  H
  C33      1.0000 0.04200  0.20200  0.71870  Biso   1.000  C
  C34      1.0000 0.10440  0.15440  0.68930  Biso   1.000  C
  H32      1.0000 0.15790  0.12860  0.70550  Biso   1.000  H
  C35      1.0000 0.09050  0.14340  0.63670  Biso   1.000  C
  C36      1.0000 0.00690  0.18110  0.61340  Biso   1.000  C
  H33      1.0000 0.99540  0.17370  0.57800  Biso   1.000  H
  C37      1.0000 0.05940  0.20330  0.77620  Biso   1.000  C
  H34      1.0000 0.04670  0.14290  0.79050  Biso   1.000  H
  H35      1.0000 0.12500  0.21860  0.78440  Biso   1.000  H
  C38      1.0000 0.00220  0.28060  0.85060  Biso   1.000  C
  C39      1.0000 0.93930  0.34580  0.87160  Biso   1.000  C
  H36      1.0000 0.90070  0.38190  0.84990  Biso   1.000  H
  C40      1.0000 0.93630  0.35450  0.92300  Biso   1.000  C
  C41      1.0000 0.86690  0.42400  0.94530  Biso   1.000  C
  C42      1.0000 0.99700  0.30280  0.95550  Biso   1.000  C
  H37      1.0000 0.99430  0.30980  0.99130  Biso   1.000  H
  C43      1.0000 0.05890  0.24360  0.93630  Biso   1.000  C
  C44      1.0000 0.12070  0.18500  0.97160  Biso   1.000  C
  C45      1.0000 0.06470  0.23590  0.88320  Biso   1.000  C
  H38      1.0000 0.11190  0.19970  0.86950  Biso   1.000  H
  C46      1.0000 0.40330  0.16410  0.58920  Biso   1.000  C
  H39      1.0000 0.40840  0.20640  0.61620  Biso   1.000  H
  C47      1.0000 0.47910  0.15190  0.55550  Biso   1.000  C
  C48      1.0000 0.56730  0.20960  0.56370  Biso   1.000  C
  C49      1.0000 0.46830  0.09070  0.51370  Biso   1.000  C
  H40      1.0000 0.51550  0.08540  0.48980  Biso   1.000  H
  C50      1.0000 0.38810  0.03890  0.50840  Biso   1.000  C
  C51      1.0000 0.37850  0.97530  0.46490  Biso   1.000  C
  C52      1.0000 0.31270  0.04780  0.54230  Biso   1.000  C
  H41      1.0000 0.25880  0.01150  0.53830  Biso   1.000  H
  C53      1.0000 0.32150  0.11240  0.58160  Biso   1.000  C
  C54      1.0000 0.15830  0.09080  0.60470  Biso   1.000  C
  H42      1.0000 0.15880  0.02620  0.61420  Biso   1.000  H
  H43      1.0000 0.14060  0.09600  0.56810  Biso   1.000  H
  C55      1.0000 0.83840  0.89850  0.38880  Biso   1.000  C
  H44      1.0000 0.88380  0.94610  0.38280  Biso   1.000  H
  H45      1.0000 0.83130  0.86040  0.35850  Biso   1.000  H
  H46      1.0000 0.85970  0.86160  0.41780  Biso   1.000  H
  C56      1.0000 0.68480  0.89140  0.43200  Biso   1.000  C
  H47      1.0000 0.69050  0.91480  0.46680  Biso   1.000  H
  H48      1.0000 0.70150  0.82720  0.43190  Biso   1.000  H
  H49      1.0000 0.62080  0.89860  0.41900  Biso   1.000  H
  C57      1.0000 0.72510  0.02600  0.37860  Biso   1.000  C
  C58      1.0000 0.63210  0.06290  0.39180  Biso   1.000  C
  H50      1.0000 0.62940  0.06900  0.42880  Biso   1.000  H
  H51      1.0000 0.58330  0.02160  0.37940  Biso   1.000  H
  H52      1.0000 0.62300  0.12220  0.37590  Biso   1.000  H
  C59      1.0000 0.80730  0.68940  0.56490  Biso   1.000  C
  H53      1.0000 0.85010  0.72810  0.58480  Biso   1.000  H
  H54      1.0000 0.77000  0.72650  0.54110  Biso   1.000  H
  H55      1.0000 0.84260  0.64500  0.54600  Biso   1.000  H
  C60      1.0000 0.65770  0.68010  0.61100  Biso   1.000  C
  H56      1.0000 0.62320  0.63500  0.62980  Biso   1.000  H
  H57      1.0000 0.62270  0.69590  0.57960  Biso   1.000  H
  H58      1.0000 0.66660  0.73430  0.63190  Biso   1.000  H
  C61      1.0000 0.77950  0.56190  0.61880  Biso   1.000  C
  C62      1.0000 0.87080  0.52490  0.60540  Biso   1.000  C
  H59      1.0000 0.88410  0.47040  0.62540  Biso   1.000  H
  H60      1.0000 0.91910  0.57010  0.61270  Biso   1.000  H
  H61      1.0000 0.86960  0.50990  0.56910  Biso   1.000  H
  H62      1.0000 0.36270  0.13030  0.75670  Biso   1.000  H
  H63      1.0000 0.33830  0.07250  0.70670  Biso   1.000  H
  H64      1.0000 0.41820  0.03920  0.74600  Biso   1.000  H
  H65      1.0000 0.21890  0.90070  0.77470  Biso   1.000  H
  H66      1.0000 0.31010  0.89260  0.74230  Biso   1.000  H
  H67      1.0000 0.21920  0.94020  0.71820  Biso   1.000  H
  H68      1.0000 0.21680  0.93590  0.85420  Biso   1.000  H
  H69      1.0000 0.13750  0.97130  0.81500  Biso   1.000  H
  H70      1.0000 0.15480  0.02110  0.86850  Biso   1.000  H
  N4       1.0000 0.71130  0.51690  0.23000  Biso   1.000  N
  C63      1.0000 0.64220  0.56910  0.25740  Biso   1.000  C
  H71      1.0000 0.63710  0.54390  0.29150  Biso   1.000  H
  H72      1.0000 0.58180  0.56570  0.23920  Biso   1.000  H
  H73      1.0000 0.66180  0.63240  0.26000  Biso   1.000  H
  C64      1.0000 0.74340  0.43060  0.25050  Biso   1.000  C
  H74      1.0000 0.69010  0.39100  0.25530  Biso   1.000  H
  H75      1.0000 0.77690  0.43990  0.28310  Biso   1.000  H
  H76      1.0000 0.78480  0.40270  0.22640  Biso   1.000  H
  C65      1.0000 0.75000  0.54800  0.18240  Biso   1.000  C
  C66      1.0000 0.81860  0.48850  0.15930  Biso   1.000  C
  H77      1.0000 0.84380  0.44670  0.18510  Biso   1.000  H
  H78      1.0000 0.86920  0.52360  0.14530  Biso   1.000  H
  H79      1.0000 0.78690  0.45420  0.13190  Biso   1.000  H
  O32      1.0000 0.71670  0.62620  0.16760  Biso   1.000  O
  Cd6      1.0000 0.16287  0.70975  0.62415  Biso   1.000  Cd
  Cd7      1.0000 0.25017  0.79244  0.49974  Biso   1.000  Cd
  Cd8      1.0000 0.33675  0.87456  0.37526  Biso   1.000  Cd
  Cd9      1.0000 0.75331  0.55431  0.98147  Biso   1.000  Cd
  Cd10     1.0000 0.67175  0.66586  0.08857  Biso   1.000  Cd
  O33      1.0000 0.29460  0.77820  0.64580  Biso   1.000  O
  O34      1.0000 0.34470  0.82590  0.56850  Biso   1.000  O
  O35      1.0000 0.80000  0.15970  0.46020  Biso   1.000  O
  O36      1.0000 0.93750  0.11560  0.43110  Biso   1.000  O
  O37      1.0000 0.12670  0.87870  0.52890  Biso   1.000  O
  O38      1.0000 0.07310  0.82940  0.60440  Biso   1.000  O
  O39      1.0000 0.66980  0.65270  0.93330  Biso   1.000  O
  O40      1.0000 0.61850  0.70280  0.00710  Biso   1.000  O
  O41      1.0000 0.37620  0.94670  0.01080  Biso   1.000  O
  O42      1.0000 0.33210  0.01640  0.93980  Biso   1.000  O
  O43      1.0000 0.15430  0.76040  0.43050  Biso   1.000  O
  O44      1.0000 0.20270  0.80270  0.35450  Biso   1.000  O
  O45      1.0000 0.18120  0.97420  0.08650  Biso   1.000  O
  O46      1.0000 0.13490  0.93650  0.00640  Biso   1.000  O
  O47      1.0000 0.89090  0.68090  0.98330  Biso   1.000  O
  O48      1.0000 0.81450  0.63900  0.05050  Biso   1.000  O
  O49      1.0000 0.42900  0.75800  0.39630  Biso   1.000  O
  O50      1.0000 0.37280  0.70700  0.47020  Biso   1.000  O
  O51      1.0000 0.56330  0.47200  0.57060  Biso   1.000  O
  O52      1.0000 0.69770  0.42140  0.54110  Biso   1.000  O
  O53      1.0000 0.75360  0.95320  0.61650  Biso   1.000  O
  O54      1.0000 0.51890  0.87430  0.80160  Biso   1.000  O
  O55      1.0000 0.00230  0.77170  0.20120  Biso   1.000  O
  O56      1.0000 0.74910  0.63240  0.38450  Biso   1.000  O
  O57      1.0000 0.21650  0.56680  0.64980  Biso   1.000  O
  O58      1.0000 0.27660  0.02170  0.35080  Biso   1.000  O
  O59      1.0000 0.09100  0.70450  0.69950  Biso   1.000  O
  H80      1.0000 0.05920  0.75360  0.70330  Biso   1.000  H
  H81      1.0000 0.05400  0.65840  0.69840  Biso   1.000  H
  O60      1.0000 0.40310  0.88350  0.29650  Biso   1.000  O
  H82      1.0000 0.43440  0.83450  0.29180  Biso   1.000  H
  H83      1.0000 0.35960  0.88840  0.27300  Biso   1.000  H
  O61      1.0000 0.70620  0.81120  0.11340  Biso   1.000  O
  H84      1.0000 0.67810  0.82400  0.14100  Biso   1.000  H
  H85      1.0000 0.76550  0.81630  0.11880  Biso   1.000  H
  O62      1.0000 0.51710  0.66720  0.10830  Biso   1.000  O
  H86      1.0000 0.51030  0.69780  0.13610  Biso   1.000  H
  H87      1.0000 0.48530  0.69250  0.08360  Biso   1.000  H
  N5       1.0000 0.25360  0.44090  0.60010  Biso   1.000  N
  N6       1.0000 0.25240  0.14340  0.40150  Biso   1.000  N
  C67      1.0000 0.35500  0.81570  0.61710  Biso   1.000  C
  C68      1.0000 0.44570  0.84660  0.64260  Biso   1.000  C
  C69      1.0000 0.46840  0.82350  0.69270  Biso   1.000  C
  H88      1.0000 0.42630  0.78900  0.71150  Biso   1.000  H
  C70      1.0000 0.55520  0.85130  0.71620  Biso   1.000  C
  C71      1.0000 0.61420  0.90650  0.68780  Biso   1.000  C
  H89      1.0000 0.67010  0.92850  0.70340  Biso   1.000  H
  C72      1.0000 0.59100  0.93010  0.63530  Biso   1.000  C
  C73      1.0000 0.50860  0.89920  0.61350  Biso   1.000  C
  H90      1.0000 0.49320  0.91280  0.57900  Biso   1.000  H
  C74      1.0000 0.65990  0.98750  0.60520  Biso   1.000  C
  H91      1.0000 0.64490  0.98290  0.56830  Biso   1.000  H
  H92      1.0000 0.65570  0.05170  0.61530  Biso   1.000  H
  C75      1.0000 0.82350  0.97440  0.58220  Biso   1.000  C
  C76      1.0000 0.81470  0.03630  0.54310  Biso   1.000  C
  H93      1.0000 0.75930  0.07060  0.53900  Biso   1.000  H
  C77      1.0000 0.88710  0.04940  0.50890  Biso   1.000  C
  C78      1.0000 0.87400  0.11350  0.46460  Biso   1.000  C
  C79      1.0000 0.96870  0.99540  0.51600  Biso   1.000  C
  H94      1.0000 0.01720  0.00080  0.49290  Biso   1.000  H
  C80      1.0000 0.97820  0.93350  0.55770  Biso   1.000  C
  C81      1.0000 0.06670  0.87420  0.56390  Biso   1.000  C
  C82      1.0000 0.90590  0.92480  0.58920  Biso   1.000  C
  H95      1.0000 0.91160  0.88390  0.61690  Biso   1.000  H
  C83      1.0000 0.56900  0.78920  0.87860  Biso   1.000  C
  H96      1.0000 0.60660  0.75070  0.85930  Biso   1.000  H
  C84      1.0000 0.56550  0.77710  0.93240  Biso   1.000  C
  C85      1.0000 0.62170  0.70370  0.95940  Biso   1.000  C
  C86      1.0000 0.50600  0.83360  0.95840  Biso   1.000  C
  H97      1.0000 0.50230  0.82630  0.99410  Biso   1.000  H
  C87      1.0000 0.44950  0.90300  0.93350  Biso   1.000  C
  C88      1.0000 0.38240  0.95650  0.96370  Biso   1.000  C
  C89      1.0000 0.46240  0.91450  0.88140  Biso   1.000  C
  H98      1.0000 0.43240  0.96320  0.86400  Biso   1.000  H
  C90      1.0000 0.51750  0.85680  0.85470  Biso   1.000  C
  C91      1.0000 0.57880  0.82700  0.77040  Biso   1.000  C
  H99      1.0000 0.57150  0.76120  0.77550  Biso   1.000  H
  H100     1.0000 0.64390  0.84340  0.77920  Biso   1.000  H
  C92      1.0000 0.14700  0.76700  0.38500  Biso   1.000  C
  C93      1.0000 0.05760  0.72810  0.35830  Biso   1.000  C
  C94      1.0000 0.04280  0.73410  0.30570  Biso   1.000  C
  H101     1.0000 0.08940  0.75960  0.28560  Biso   1.000  H
  C95      1.0000 0.95800  0.70200  0.28130  Biso   1.000  C
  C96      1.0000 0.89560  0.65440  0.31070  Biso   1.000  C
  H102     1.0000 0.84210  0.62860  0.29450  Biso   1.000  H
  C97      1.0000 0.90950  0.64340  0.36330  Biso   1.000  C
  C98      1.0000 0.99310  0.68110  0.38660  Biso   1.000  C
  H103     1.0000 0.00460  0.67370  0.42200  Biso   1.000  H
  C99      1.0000 0.94060  0.70330  0.22380  Biso   1.000  C
  H104     1.0000 0.95330  0.64290  0.20950  Biso   1.000  H
  H105     1.0000 0.87500  0.71860  0.21560  Biso   1.000  H
  C100     1.0000 0.99780  0.78060  0.14940  Biso   1.000  C
  C101     1.0000 0.06070  0.84580  0.12840  Biso   1.000  C
  H106     1.0000 0.09930  0.88190  0.15010  Biso   1.000  H
  C102     1.0000 0.06370  0.85450  0.07700  Biso   1.000  C
  C103     1.0000 0.13310  0.92400  0.05470  Biso   1.000  C
  C104     1.0000 0.00300  0.80280  0.04450  Biso   1.000  C
  H107     1.0000 0.00570  0.80980  0.00870  Biso   1.000  H
  C105     1.0000 0.94110  0.74360  0.06370  Biso   1.000  C
  C106     1.0000 0.87930  0.68500  0.02840  Biso   1.000  C
  C107     1.0000 0.93530  0.73590  0.11680  Biso   1.000  C
  H108     1.0000 0.88810  0.69970  0.13050  Biso   1.000  H
  C108     1.0000 0.59670  0.66410  0.41080  Biso   1.000  C
  H109     1.0000 0.59160  0.70640  0.38380  Biso   1.000  H
  C109     1.0000 0.52090  0.65190  0.44450  Biso   1.000  C
  C110     1.0000 0.43270  0.70960  0.43630  Biso   1.000  C
  C111     1.0000 0.53170  0.59070  0.48630  Biso   1.000  C
  H110     1.0000 0.48450  0.58540  0.51020  Biso   1.000  H
  C112     1.0000 0.61190  0.53890  0.49160  Biso   1.000  C
  C113     1.0000 0.62150  0.47530  0.53510  Biso   1.000  C
  C114     1.0000 0.68730  0.54780  0.45770  Biso   1.000  C
  H111     1.0000 0.74120  0.51150  0.46170  Biso   1.000  H
  C115     1.0000 0.67850  0.61240  0.41840  Biso   1.000  C
  C116     1.0000 0.84170  0.59080  0.39530  Biso   1.000  C
  H112     1.0000 0.84120  0.52620  0.38580  Biso   1.000  H
  H113     1.0000 0.85940  0.59600  0.43190  Biso   1.000  H
  C117     1.0000 0.16160  0.39850  0.61120  Biso   1.000  C
  H114     1.0000 0.11620  0.44610  0.61720  Biso   1.000  H
  H115     1.0000 0.16870  0.36040  0.64150  Biso   1.000  H
  H116     1.0000 0.14030  0.36160  0.58220  Biso   1.000  H
  C118     1.0000 0.31520  0.39140  0.56800  Biso   1.000  C
  H117     1.0000 0.30950  0.41480  0.53320  Biso   1.000  H
  H118     1.0000 0.29850  0.32720  0.56810  Biso   1.000  H
  H119     1.0000 0.37920  0.39860  0.58100  Biso   1.000  H
  C119     1.0000 0.27490  0.52600  0.62140  Biso   1.000  C
  C120     1.0000 0.36790  0.56290  0.60820  Biso   1.000  C
  H120     1.0000 0.37060  0.56900  0.57120  Biso   1.000  H
  H121     1.0000 0.41670  0.52160  0.62060  Biso   1.000  H
  H122     1.0000 0.37700  0.62220  0.62410  Biso   1.000  H
  C121     1.0000 0.19270  0.18940  0.43510  Biso   1.000  C
  H123     1.0000 0.14990  0.22810  0.41520  Biso   1.000  H
  H124     1.0000 0.23000  0.22650  0.45890  Biso   1.000  H
  H125     1.0000 0.15740  0.14500  0.45400  Biso   1.000  H
  C122     1.0000 0.34230  0.18010  0.38900  Biso   1.000  C
  H126     1.0000 0.37680  0.13500  0.37020  Biso   1.000  H
  H127     1.0000 0.37730  0.19590  0.42040  Biso   1.000  H
  H128     1.0000 0.33340  0.23430  0.36810  Biso   1.000  H
  C123     1.0000 0.22050  0.06190  0.38120  Biso   1.000  C
  C124     1.0000 0.12920  0.02490  0.39460  Biso   1.000  C
  H129     1.0000 0.11590  0.97040  0.37460  Biso   1.000  H
  H130     1.0000 0.08090  0.07010  0.38730  Biso   1.000  H
  H131     1.0000 0.13040  0.00990  0.43090  Biso   1.000  H
  H132     1.0000 0.63730  0.63030  0.24330  Biso   1.000  H
  H133     1.0000 0.66170  0.57250  0.29330  Biso   1.000  H
  H134     1.0000 0.58180  0.53920  0.25400  Biso   1.000  H
  H135     1.0000 0.78110  0.40070  0.22530  Biso   1.000  H
  H136     1.0000 0.68990  0.39260  0.25770  Biso   1.000  H
  H137     1.0000 0.78080  0.44020  0.28180  Biso   1.000  H
  H138     1.0000 0.78320  0.43590  0.14580  Biso   1.000  H
  H139     1.0000 0.86250  0.47130  0.18500  Biso   1.000  H
  H140     1.0000 0.84520  0.52110  0.13150  Biso   1.000  H
