data_image0
_cell_length_a       10.4465
_cell_length_b       11.7859
_cell_length_c       14.6048
_cell_angle_alpha    90
_cell_angle_beta     90
_cell_angle_gamma    90

_symmetry_space_group_name_H-M    P 1
_symmetry_int_tables_number       1

loop_
  _symmetry_equiv_pos_as_xyz
  'x, y, z'

loop_
  _atom_site_label
  _atom_site_occupancy
  _atom_site_fract_x
  _atom_site_fract_y
  _atom_site_fract_z
  _atom_site_thermal_displace_type
  _atom_site_B_iso_or_equiv
  _atom_site_type_symbol
  Zn1      1.0000 0.83150  0.80200  0.82664  Biso   1.000  Zn
  Zn2      1.0000 0.66850  0.19800  0.32664  Biso   1.000  Zn
  Zn3      1.0000 0.16850  0.30200  0.67336  Biso   1.000  Zn
  Zn4      1.0000 0.33150  0.69800  0.17336  Biso   1.000  Zn
  H1       1.0000 0.49540  0.02920  0.80380  Biso   1.000  H
  H2       1.0000 0.52580  0.89610  0.80600  Biso   1.000  H
  H3       1.0000 0.59290  0.97930  0.87810  Biso   1.000  H
  H4       1.0000 0.57950  0.21000  0.63380  Biso   1.000  H
  H5       1.0000 0.48120  0.11880  0.67440  Biso   1.000  H
  H6       1.0000 0.56000  0.19950  0.74210  Biso   1.000  H
  H7       1.0000 0.75610  0.15390  0.58590  Biso   1.000  H
  H8       1.0000 0.85110  0.10570  0.66260  Biso   1.000  H
  H9       1.0000 0.78690  0.02100  0.59030  Biso   1.000  H
  H10      1.0000 0.46980  0.47980  0.20760  Biso   1.000  H
  H11      1.0000 0.80290  0.47870  0.06700  Biso   1.000  H
  H12      1.0000 0.53990  0.72630  0.03090  Biso   1.000  H
  H13      1.0000 0.00460  0.97080  0.30380  Biso   1.000  H
  H14      1.0000 0.97420  0.10390  0.30600  Biso   1.000  H
  H15      1.0000 0.90710  0.02070  0.37810  Biso   1.000  H
  H16      1.0000 0.92050  0.79000  0.13380  Biso   1.000  H
  H17      1.0000 0.01880  0.88120  0.17440  Biso   1.000  H
  H18      1.0000 0.94000  0.80050  0.24210  Biso   1.000  H
  H19      1.0000 0.74390  0.84610  0.08590  Biso   1.000  H
  H20      1.0000 0.64890  0.89430  0.16260  Biso   1.000  H
  H21      1.0000 0.71310  0.97900  0.09030  Biso   1.000  H
  H22      1.0000 0.03020  0.52020  0.70760  Biso   1.000  H
  H23      1.0000 0.69710  0.52130  0.56700  Biso   1.000  H
  H24      1.0000 0.96010  0.27370  0.53090  Biso   1.000  H
  H25      1.0000 0.50460  0.52920  0.69620  Biso   1.000  H
  H26      1.0000 0.47420  0.39610  0.69400  Biso   1.000  H
  H27      1.0000 0.40710  0.47930  0.62190  Biso   1.000  H
  H28      1.0000 0.42050  0.71000  0.86620  Biso   1.000  H
  H29      1.0000 0.51880  0.61880  0.82560  Biso   1.000  H
  H30      1.0000 0.44000  0.69950  0.75790  Biso   1.000  H
  H31      1.0000 0.24390  0.65390  0.91410  Biso   1.000  H
  H32      1.0000 0.14890  0.60570  0.83740  Biso   1.000  H
  H33      1.0000 0.21310  0.52100  0.90970  Biso   1.000  H
  H34      1.0000 0.53020  0.97980  0.29240  Biso   1.000  H
  H35      1.0000 0.19710  0.97870  0.43300  Biso   1.000  H
  H36      1.0000 0.46010  0.22630  0.46910  Biso   1.000  H
  H37      1.0000 0.99540  0.47080  0.19620  Biso   1.000  H
  H38      1.0000 0.02580  0.60390  0.19400  Biso   1.000  H
  H39      1.0000 0.09290  0.52070  0.12190  Biso   1.000  H
  H40      1.0000 0.07950  0.29000  0.36620  Biso   1.000  H
  H41      1.0000 0.98120  0.38120  0.32560  Biso   1.000  H
  H42      1.0000 0.06000  0.30050  0.25790  Biso   1.000  H
  H43      1.0000 0.25610  0.34610  0.41410  Biso   1.000  H
  H44      1.0000 0.35110  0.39430  0.33740  Biso   1.000  H
  H45      1.0000 0.28690  0.47900  0.40970  Biso   1.000  H
  H46      1.0000 0.96980  0.02020  0.79240  Biso   1.000  H
  H47      1.0000 0.30290  0.02130  0.93300  Biso   1.000  H
  H48      1.0000 0.03990  0.77370  0.96910  Biso   1.000  H
  C1       1.0000 0.67060  0.98999  0.74975  Biso   1.000  C
  C2       1.0000 0.56180  0.97210  0.81508  Biso   1.000  C
  C3       1.0000 0.56320  0.15730  0.68440  Biso   1.000  C
  C4       1.0000 0.77380  0.08990  0.62680  Biso   1.000  C
  C5       1.0000 0.52557  0.51438  0.16443  Biso   1.000  C
  C6       1.0000 0.64175  0.46267  0.14568  Biso   1.000  C
  C7       1.0000 0.72224  0.51182  0.08082  Biso   1.000  C
  C8       1.0000 0.56590  0.65830  0.06039  Biso   1.000  C
  C9       1.0000 0.76790  0.66632  0.96637  Biso   1.000  C
  C10      1.0000 0.68240  0.61058  0.03649  Biso   1.000  C
  C11      1.0000 0.68330  0.35929  0.19905  Biso   1.000  C
  C12      1.0000 0.82940  0.01001  0.24975  Biso   1.000  C
  C13      1.0000 0.93820  0.02790  0.31508  Biso   1.000  C
  C14      1.0000 0.93680  0.84270  0.18440  Biso   1.000  C
  C15      1.0000 0.72620  0.91010  0.12680  Biso   1.000  C
  C16      1.0000 0.97443  0.48562  0.66443  Biso   1.000  C
  C17      1.0000 0.85825  0.53733  0.64568  Biso   1.000  C
  C18      1.0000 0.77776  0.48818  0.58082  Biso   1.000  C
  C19      1.0000 0.93410  0.34170  0.56039  Biso   1.000  C
  C20      1.0000 0.73210  0.33368  0.46637  Biso   1.000  C
  C21      1.0000 0.81760  0.38942  0.53649  Biso   1.000  C
  C22      1.0000 0.81670  0.64071  0.69905  Biso   1.000  C
  C23      1.0000 0.32940  0.48999  0.75025  Biso   1.000  C
  C24      1.0000 0.43820  0.47210  0.68492  Biso   1.000  C
  C25      1.0000 0.43680  0.65730  0.81560  Biso   1.000  C
  C26      1.0000 0.22620  0.58990  0.87320  Biso   1.000  C
  C27      1.0000 0.47443  0.01438  0.33557  Biso   1.000  C
  C28      1.0000 0.35825  0.96267  0.35432  Biso   1.000  C
  C29      1.0000 0.27776  0.01182  0.41918  Biso   1.000  C
  C30      1.0000 0.43410  0.15830  0.43961  Biso   1.000  C
  C31      1.0000 0.23210  0.16632  0.53363  Biso   1.000  C
  C32      1.0000 0.31760  0.11058  0.46351  Biso   1.000  C
  C33      1.0000 0.31670  0.85929  0.30095  Biso   1.000  C
  C34      1.0000 0.17060  0.51001  0.25025  Biso   1.000  C
  C35      1.0000 0.06180  0.52790  0.18492  Biso   1.000  C
  C36      1.0000 0.06320  0.34270  0.31560  Biso   1.000  C
  C37      1.0000 0.27380  0.41010  0.37320  Biso   1.000  C
  C38      1.0000 0.02557  0.98562  0.83557  Biso   1.000  C
  C39      1.0000 0.14175  0.03733  0.85432  Biso   1.000  C
  C40      1.0000 0.22224  0.98818  0.91918  Biso   1.000  C
  C41      1.0000 0.06590  0.84170  0.93961  Biso   1.000  C
  C42      1.0000 0.26790  0.83368  0.03363  Biso   1.000  C
  C43      1.0000 0.18240  0.88942  0.96351  Biso   1.000  C
  C44      1.0000 0.18330  0.14071  0.80095  Biso   1.000  C
  N1       1.0000 0.48822  0.61224  0.12373  Biso   1.000  N
  N2       1.0000 0.66570  0.07330  0.68850  Biso   1.000  N
  N3       1.0000 0.01178  0.38776  0.62373  Biso   1.000  N
  N4       1.0000 0.83430  0.92670  0.18850  Biso   1.000  N
  N5       1.0000 0.51178  0.11224  0.37627  Biso   1.000  N
  N6       1.0000 0.33430  0.57330  0.81150  Biso   1.000  N
  N7       1.0000 0.98822  0.88776  0.87627  Biso   1.000  N
  N8       1.0000 0.16570  0.42670  0.31150  Biso   1.000  N
  O1       1.0000 0.71643  0.74936  0.92233  Biso   1.000  O
  O2       1.0000 0.87788  0.63223  0.95605  Biso   1.000  O
  O3       1.0000 0.59435  0.30990  0.24370  Biso   1.000  O
  O4       1.0000 0.79682  0.33189  0.19835  Biso   1.000  O
  O5       1.0000 0.76704  0.92755  0.75116  Biso   1.000  O
  O6       1.0000 0.78357  0.25064  0.42233  Biso   1.000  O
  O7       1.0000 0.62212  0.36777  0.45605  Biso   1.000  O
  O8       1.0000 0.90565  0.69010  0.74370  Biso   1.000  O
  O9       1.0000 0.70318  0.66811  0.69835  Biso   1.000  O
  O10      1.0000 0.73296  0.07245  0.25116  Biso   1.000  O
  O11      1.0000 0.28357  0.24936  0.57767  Biso   1.000  O
  O12      1.0000 0.12212  0.13223  0.54395  Biso   1.000  O
  O13      1.0000 0.40565  0.80990  0.25630  Biso   1.000  O
  O14      1.0000 0.20318  0.83189  0.30165  Biso   1.000  O
  O15      1.0000 0.23296  0.42755  0.74884  Biso   1.000  O
  O16      1.0000 0.21643  0.75064  0.07767  Biso   1.000  O
  O17      1.0000 0.37788  0.86777  0.04395  Biso   1.000  O
  O18      1.0000 0.09435  0.19010  0.75630  Biso   1.000  O
  O19      1.0000 0.29682  0.16811  0.80165  Biso   1.000  O
  O20      1.0000 0.26704  0.57245  0.24884  Biso   1.000  O
