data_image0
_cell_length_a       25.45
_cell_length_b       11.928
_cell_length_c       25.835
_cell_angle_alpha    90
_cell_angle_beta     116.777
_cell_angle_gamma    90

_symmetry_space_group_name_H-M    "P 1"
_symmetry_int_tables_number       1

loop_
  _symmetry_equiv_pos_as_xyz
  'x, y, z'

loop_
  _atom_site_label
  _atom_site_occupancy
  _atom_site_fract_x
  _atom_site_fract_y
  _atom_site_fract_z
  _atom_site_thermal_displace_type
  _atom_site_B_iso_or_equiv
  _atom_site_type_symbol
  Cd1      1.0000 0.47750  0.17535  0.09091  Biso   1.000  Cd
  Cd2      1.0000 0.07013  0.74728  0.51095  Biso   1.000  Cd
  Na1      1.0000 0.97939  0.51250  0.92696  Biso   1.000  Na
  C1       1.0000 0.39810  0.01740  0.02850  Biso   1.000  C
  C2       1.0000 0.35180  0.93540  0.98820  Biso   1.000  C
  C3       1.0000 0.35350  0.90110  0.93680  Biso   1.000  C
  H1       1.0000 0.38270  0.92770  0.92760  Biso   1.000  H
  C4       1.0000 0.31100  0.82710  0.90030  Biso   1.000  C
  H2       1.0000 0.31300  0.79990  0.86750  Biso   1.000  H
  C5       1.0000 0.26650  0.79390  0.91220  Biso   1.000  C
  C6       1.0000 0.26640  0.82490  0.96290  Biso   1.000  C
  H3       1.0000 0.23770  0.79630  0.97230  Biso   1.000  H
  C7       1.0000 0.30740  0.89680  0.00000  Biso   1.000  C
  H4       1.0000 0.30550  0.92010  0.03350  Biso   1.000  H
  C8       1.0000 0.19990  0.72550  0.81190  Biso   1.000  C
  C9       1.0000 0.17810  0.63070  0.77890  Biso   1.000  C
  H5       1.0000 0.18180  0.56240  0.79760  Biso   1.000  H
  C10      1.0000 0.15170  0.63310  0.72130  Biso   1.000  C
  H6       1.0000 0.13560  0.56770  0.70050  Biso   1.000  H
  C11      1.0000 0.14790  0.73300  0.69150  Biso   1.000  C
  C12      1.0000 0.17000  0.82710  0.72540  Biso   1.000  C
  H7       1.0000 0.16780  0.89560  0.70730  Biso   1.000  H
  C13      1.0000 0.19500  0.82380  0.78420  Biso   1.000  C
  H8       1.0000 0.20870  0.88950  0.80540  Biso   1.000  H
  C14      1.0000 0.11950  0.73710  0.62750  Biso   1.000  C
  C15      1.0000 0.12000  0.40180  0.96740  Biso   1.000  C
  C16      1.0000 0.14740  0.48430  0.94190  Biso   1.000  C
  C17      1.0000 0.11060  0.55400  0.89740  Biso   1.000  C
  H9       1.0000 0.07000  0.54600  0.88140  Biso   1.000  H
  C18      1.0000 0.13460  0.63370  0.87750  Biso   1.000  C
  H10      1.0000 0.11020  0.68580  0.85060  Biso   1.000  H
  C19      1.0000 0.19560  0.63940  0.89670  Biso   1.000  C
  C20      1.0000 0.23150  0.56510  0.93920  Biso   1.000  C
  H11      1.0000 0.27200  0.56650  0.95200  Biso   1.000  H
  C21      1.0000 0.20720  0.48890  0.96270  Biso   1.000  C
  H12      1.0000 0.23130  0.44120  0.99240  Biso   1.000  H
  C22      1.0000 0.44510  0.38110  0.13460  Biso   1.000  C
  C23      1.0000 0.40860  0.47520  0.13910  Biso   1.000  C
  C24      1.0000 0.41820  0.52360  0.18990  Biso   1.000  C
  H13      1.0000 0.44840  0.49640  0.22410  Biso   1.000  H
  C25      1.0000 0.38500  0.61090  0.19250  Biso   1.000  C
  H14      1.0000 0.39400  0.64430  0.22800  Biso   1.000  H
  C26      1.0000 0.33770  0.65080  0.14260  Biso   1.000  C
  C27      1.0000 0.32810  0.60440  0.09160  Biso   1.000  C
  H15      1.0000 0.29840  0.63350  0.05760  Biso   1.000  H
  C28      1.0000 0.36090  0.51480  0.08800  Biso   1.000  C
  H16      1.0000 0.35160  0.48120  0.05240  Biso   1.000  H
  C29      1.0000 0.33360  0.83130  0.18600  Biso   1.000  C
  C30      1.0000 0.38220  0.87530  0.18460  Biso   1.000  C
  H17      1.0000 0.39280  0.84920  0.15670  Biso   1.000  H
  C31      1.0000 0.41610  0.95610  0.22240  Biso   1.000  C
  H18      1.0000 0.44790  0.98710  0.21880  Biso   1.000  H
  C32      1.0000 0.40240  0.99120  0.26600  Biso   1.000  C
  C33      1.0000 0.35200  0.94940  0.26560  Biso   1.000  C
  H19      1.0000 0.34010  0.97630  0.29240  Biso   1.000  H
  C34      1.0000 0.31840  0.86840  0.22640  Biso   1.000  C
  H20      1.0000 0.28530  0.83960  0.22810  Biso   1.000  H
  C35      1.0000 0.24040  0.73500  0.11850  Biso   1.000  C
  C36      1.0000 0.20790  0.83620  0.10080  Biso   1.000  C
  H21      1.0000 0.22640  0.90570  0.10930  Biso   1.000  H
  C37      1.0000 0.14870  0.82700  0.07110  Biso   1.000  C
  H22      1.0000 0.12660  0.89250  0.05890  Biso   1.000  H
  C38      1.0000 0.11960  0.72760  0.05810  Biso   1.000  C
  C39      1.0000 0.15200  0.63130  0.07300  Biso   1.000  C
  H23      1.0000 0.13280  0.56270  0.06200  Biso   1.000  H
  C40      1.0000 0.21330  0.63300  0.10410  Biso   1.000  C
  H24      1.0000 0.23490  0.56690  0.11470  Biso   1.000  H
  C41      1.0000 0.05260  0.71760  0.02710  Biso   1.000  C
  C42      1.0000 0.44370  0.06550  0.31160  Biso   1.000  C
  N1       1.0000 0.22180  0.71900  0.87490  Biso   1.000  N
  N2       1.0000 0.30440  0.74060  0.14610  Biso   1.000  N
  O1       1.0000 0.48950  0.10440  0.31030  Biso   1.000  O
  O2       1.0000 0.43260  0.09020  0.35390  Biso   1.000  O
  O3       1.0000 0.43810  0.04920  0.01560  Biso   1.000  O
  O4       1.0000 0.39450  0.05630  0.07180  Biso   1.000  O
  O5       1.0000 0.42740  0.32780  0.08860  Biso   1.000  O
  O6       1.0000 0.49260  0.35810  0.18030  Biso   1.000  O
  O7       1.0000 0.02310  0.80970  0.02160  Biso   1.000  O
  O8       1.0000 0.02860  0.62500  0.00950  Biso   1.000  O
  O9       1.0000 0.15250  0.33570  0.00510  Biso   1.000  O
  O10      1.0000 0.06530  0.39960  0.94770  Biso   1.000  O
  O11      1.0000 0.12050  0.82630  0.60200  Biso   1.000  O
  O12      1.0000 0.09400  0.65110  0.59940  Biso   1.000  O
  C43      1.0000 0.28120  0.31600  0.14710  Biso   1.000  C
  H25      1.0000 0.23910  0.31370  0.12560  Biso   1.000  H
  H26      1.0000 0.29220  0.32300  0.18770  Biso   1.000  H
  H27      1.0000 0.29600  0.37910  0.13460  Biso   1.000  H
  C44      1.0000 0.26570  0.16050  0.08890  Biso   1.000  C
  H28      1.0000 0.22630  0.18590  0.07790  Biso   1.000  H
  H29      1.0000 0.27540  0.17350  0.05750  Biso   1.000  H
  H30      1.0000 0.26840  0.08180  0.09740  Biso   1.000  H
  C45      1.0000 0.36220  0.20130  0.16240  Biso   1.000  C
  H31      1.0000 0.37590  0.14910  0.14460  Biso   1.000  H
  N3       1.0000 0.30460  0.21880  0.13750  Biso   1.000  N
  O13      1.0000 0.39880  0.24570  0.20560  Biso   1.000  O
  C46      1.0000 0.50350  0.21800  0.98790  Biso   1.000  C
  H32      1.0000 0.49020  0.14430  0.98170  Biso   1.000  H
  C47      1.0000 0.50790  0.21520  0.89750  Biso   1.000  C
  H33      1.0000 0.51830  0.26680  0.87520  Biso   1.000  H
  H34      1.0000 0.53320  0.15080  0.90710  Biso   1.000  H
  H35      1.0000 0.46770  0.19210  0.87530  Biso   1.000  H
  C48      1.0000 0.54740  0.36150  0.96230  Biso   1.000  C
  H36      1.0000 0.55220  0.38830  0.92970  Biso   1.000  H
  H37      1.0000 0.52800  0.41770  0.97410  Biso   1.000  H
  H38      1.0000 0.58530  0.34560  0.99380  Biso   1.000  H
  N4       1.0000 0.51430  0.26610  0.94720  Biso   1.000  N
  O14      1.0000 0.50960  0.26240  0.03220  Biso   1.000  O
  C49      1.0000 0.02050  0.14340  0.38880  Biso   1.000  C
  H39      1.0000 0.03340  0.19070  0.36670  Biso   1.000  H
  H40      1.0000 0.98190  0.11490  0.36410  Biso   1.000  H
  H41      1.0000 0.01920  0.18610  0.41970  Biso   1.000  H
  C50      1.0000 0.11720  0.08200  0.43180  Biso   1.000  C
  H42      1.0000 0.12140  0.13900  0.40770  Biso   1.000  H
  H43      1.0000 0.13250  0.10920  0.47090  Biso   1.000  H
  H44      1.0000 0.13870  0.01640  0.43100  Biso   1.000  H
  C51      1.0000 0.05190  0.97670  0.44430  Biso   1.000  C
  H45      1.0000 0.02060  0.98410  0.45330  Biso   1.000  H
  N5       1.0000 0.05900  0.05560  0.41160  Biso   1.000  N
  O15      1.0000 0.08350  0.89640  0.46300  Biso   1.000  O
  C52      1.0000 0.83520  0.28320  0.77530  Biso   1.000  C
  H46      1.0000 0.80920  0.22400  0.75330  Biso   1.000  H
  H47      1.0000 0.82160  0.31500  0.80120  Biso   1.000  H
  H48      1.0000 0.83600  0.34020  0.74940  Biso   1.000  H
  C53      1.0000 0.89860  0.12740  0.80930  Biso   1.000  C
  H49      1.0000 0.86300  0.09160  0.78230  Biso   1.000  H
  H50      1.0000 0.93000  0.10910  0.79980  Biso   1.000  H
  H51      1.0000 0.90850  0.10170  0.84780  Biso   1.000  H
  C54      1.0000 0.93440  0.30660  0.84040  Biso   1.000  C
  H52      1.0000 0.96990  0.27180  0.86390  Biso   1.000  H
  N6       1.0000 0.89060  0.24120  0.80660  Biso   1.000  N
  O16      1.0000 0.93280  0.40690  0.84390  Biso   1.000  O
  C55      1.0000 0.28190  0.27850  0.16810  Biso   1.000  C
  H53      1.0000 0.24010  0.28530  0.14550  Biso   1.000  H
  H54      1.0000 0.29050  0.24020  0.20370  Biso   1.000  H
  H55      1.0000 0.29930  0.35180  0.17660  Biso   1.000  H
  C56      1.0000 0.10110  0.03800  0.39330  Biso   1.000  C
  H56      1.0000 0.10180  0.10100  0.37020  Biso   1.000  H
  H57      1.0000 0.13890  0.03090  0.42630  Biso   1.000  H
  H58      1.0000 0.09220  0.97120  0.37040  Biso   1.000  H
  Cd3      1.0000 0.52250  0.17535  0.40909  Biso   1.000  Cd
  Cd4      1.0000 0.92987  0.74728  0.98905  Biso   1.000  Cd
  Na2      1.0000 0.02061  0.51250  0.57304  Biso   1.000  Na
  C57      1.0000 0.60190  0.01740  0.47150  Biso   1.000  C
  C58      1.0000 0.64820  0.93540  0.51180  Biso   1.000  C
  C59      1.0000 0.64650  0.90110  0.56320  Biso   1.000  C
  H59      1.0000 0.61730  0.92770  0.57240  Biso   1.000  H
  C60      1.0000 0.68900  0.82710  0.59970  Biso   1.000  C
  H60      1.0000 0.68700  0.79990  0.63250  Biso   1.000  H
  C61      1.0000 0.73350  0.79390  0.58780  Biso   1.000  C
  C62      1.0000 0.73360  0.82490  0.53710  Biso   1.000  C
  H61      1.0000 0.76230  0.79630  0.52770  Biso   1.000  H
  C63      1.0000 0.69260  0.89680  0.50000  Biso   1.000  C
  H62      1.0000 0.69450  0.92010  0.46650  Biso   1.000  H
  C64      1.0000 0.80010  0.72550  0.68810  Biso   1.000  C
  C65      1.0000 0.82190  0.63070  0.72110  Biso   1.000  C
  H63      1.0000 0.81820  0.56240  0.70240  Biso   1.000  H
  C66      1.0000 0.84830  0.63310  0.77870  Biso   1.000  C
  H64      1.0000 0.86440  0.56770  0.79950  Biso   1.000  H
  C67      1.0000 0.85210  0.73300  0.80850  Biso   1.000  C
  C68      1.0000 0.83000  0.82710  0.77460  Biso   1.000  C
  H65      1.0000 0.83220  0.89560  0.79270  Biso   1.000  H
  C69      1.0000 0.80500  0.82380  0.71580  Biso   1.000  C
  H66      1.0000 0.79130  0.88950  0.69460  Biso   1.000  H
  C70      1.0000 0.88050  0.73710  0.87250  Biso   1.000  C
  C71      1.0000 0.88000  0.40180  0.53260  Biso   1.000  C
  C72      1.0000 0.85260  0.48430  0.55810  Biso   1.000  C
  C73      1.0000 0.88940  0.55400  0.60260  Biso   1.000  C
  H67      1.0000 0.93000  0.54600  0.61860  Biso   1.000  H
  C74      1.0000 0.86540  0.63370  0.62250  Biso   1.000  C
  H68      1.0000 0.88980  0.68580  0.64940  Biso   1.000  H
  C75      1.0000 0.80440  0.63940  0.60330  Biso   1.000  C
  C76      1.0000 0.76850  0.56510  0.56080  Biso   1.000  C
  H69      1.0000 0.72800  0.56650  0.54800  Biso   1.000  H
  C77      1.0000 0.79280  0.48890  0.53730  Biso   1.000  C
  H70      1.0000 0.76870  0.44120  0.50760  Biso   1.000  H
  C78      1.0000 0.55490  0.38110  0.36540  Biso   1.000  C
  C79      1.0000 0.59140  0.47520  0.36090  Biso   1.000  C
  C80      1.0000 0.58180  0.52360  0.31010  Biso   1.000  C
  H71      1.0000 0.55160  0.49640  0.27590  Biso   1.000  H
  C81      1.0000 0.61500  0.61090  0.30750  Biso   1.000  C
  H72      1.0000 0.60600  0.64430  0.27200  Biso   1.000  H
  C82      1.0000 0.66230  0.65080  0.35740  Biso   1.000  C
  C83      1.0000 0.67190  0.60440  0.40840  Biso   1.000  C
  H73      1.0000 0.70160  0.63350  0.44240  Biso   1.000  H
  C84      1.0000 0.63910  0.51480  0.41200  Biso   1.000  C
  H74      1.0000 0.64840  0.48120  0.44760  Biso   1.000  H
  C85      1.0000 0.66640  0.83130  0.31400  Biso   1.000  C
  C86      1.0000 0.61780  0.87530  0.31540  Biso   1.000  C
  H75      1.0000 0.60720  0.84920  0.34330  Biso   1.000  H
  C87      1.0000 0.58390  0.95610  0.27760  Biso   1.000  C
  H76      1.0000 0.55210  0.98710  0.28120  Biso   1.000  H
  C88      1.0000 0.59760  0.99120  0.23400  Biso   1.000  C
  C89      1.0000 0.64800  0.94940  0.23440  Biso   1.000  C
  H77      1.0000 0.65990  0.97630  0.20760  Biso   1.000  H
  C90      1.0000 0.68160  0.86840  0.27360  Biso   1.000  C
  H78      1.0000 0.71470  0.83960  0.27190  Biso   1.000  H
  C91      1.0000 0.75960  0.73500  0.38150  Biso   1.000  C
  C92      1.0000 0.79210  0.83620  0.39920  Biso   1.000  C
  H79      1.0000 0.77360  0.90570  0.39070  Biso   1.000  H
  C93      1.0000 0.85130  0.82700  0.42890  Biso   1.000  C
  H80      1.0000 0.87340  0.89250  0.44110  Biso   1.000  H
  C94      1.0000 0.88040  0.72760  0.44190  Biso   1.000  C
  C95      1.0000 0.84800  0.63130  0.42700  Biso   1.000  C
  H81      1.0000 0.86720  0.56270  0.43800  Biso   1.000  H
  C96      1.0000 0.78670  0.63300  0.39590  Biso   1.000  C
  H82      1.0000 0.76510  0.56690  0.38530  Biso   1.000  H
  C97      1.0000 0.94740  0.71760  0.47290  Biso   1.000  C
  C98      1.0000 0.55630  0.06550  0.18840  Biso   1.000  C
  N7       1.0000 0.77820  0.71900  0.62510  Biso   1.000  N
  N8       1.0000 0.69560  0.74060  0.35390  Biso   1.000  N
  O17      1.0000 0.51050  0.10440  0.18970  Biso   1.000  O
  O18      1.0000 0.56740  0.09020  0.14610  Biso   1.000  O
  O19      1.0000 0.56190  0.04920  0.48440  Biso   1.000  O
  O20      1.0000 0.60550  0.05630  0.42820  Biso   1.000  O
  O21      1.0000 0.57260  0.32780  0.41140  Biso   1.000  O
  O22      1.0000 0.50740  0.35810  0.31970  Biso   1.000  O
  O23      1.0000 0.97690  0.80970  0.47840  Biso   1.000  O
  O24      1.0000 0.97140  0.62500  0.49050  Biso   1.000  O
  O25      1.0000 0.84750  0.33570  0.49490  Biso   1.000  O
  O26      1.0000 0.93470  0.39960  0.55230  Biso   1.000  O
  O27      1.0000 0.87950  0.82630  0.89800  Biso   1.000  O
  O28      1.0000 0.90600  0.65110  0.90060  Biso   1.000  O
  C99      1.0000 0.71880  0.31600  0.35290  Biso   1.000  C
  H83      1.0000 0.76090  0.31370  0.37440  Biso   1.000  H
  H84      1.0000 0.70780  0.32300  0.31230  Biso   1.000  H
  H85      1.0000 0.70400  0.37910  0.36540  Biso   1.000  H
  C100     1.0000 0.73430  0.16050  0.41110  Biso   1.000  C
  H86      1.0000 0.77370  0.18590  0.42210  Biso   1.000  H
  H87      1.0000 0.72460  0.17350  0.44250  Biso   1.000  H
  H88      1.0000 0.73160  0.08180  0.40260  Biso   1.000  H
  C101     1.0000 0.63780  0.20130  0.33760  Biso   1.000  C
  H89      1.0000 0.62410  0.14910  0.35540  Biso   1.000  H
  N9       1.0000 0.69540  0.21880  0.36250  Biso   1.000  N
  O29      1.0000 0.60120  0.24570  0.29440  Biso   1.000  O
  C102     1.0000 0.49650  0.21800  0.51210  Biso   1.000  C
  H90      1.0000 0.50980  0.14430  0.51830  Biso   1.000  H
  C103     1.0000 0.49210  0.21520  0.60250  Biso   1.000  C
  H91      1.0000 0.48170  0.26680  0.62480  Biso   1.000  H
  H92      1.0000 0.46680  0.15080  0.59290  Biso   1.000  H
  H93      1.0000 0.53230  0.19210  0.62470  Biso   1.000  H
  C104     1.0000 0.45260  0.36150  0.53770  Biso   1.000  C
  H94      1.0000 0.44780  0.38830  0.57030  Biso   1.000  H
  H95      1.0000 0.47200  0.41770  0.52590  Biso   1.000  H
  H96      1.0000 0.41470  0.34560  0.50620  Biso   1.000  H
  N10      1.0000 0.48570  0.26610  0.55280  Biso   1.000  N
  O30      1.0000 0.49040  0.26240  0.46780  Biso   1.000  O
  C105     1.0000 0.97950  0.14340  0.11120  Biso   1.000  C
  H97      1.0000 0.96660  0.19070  0.13330  Biso   1.000  H
  H98      1.0000 0.01810  0.11490  0.13590  Biso   1.000  H
  H99      1.0000 0.98080  0.18610  0.08030  Biso   1.000  H
  C106     1.0000 0.88280  0.08200  0.06820  Biso   1.000  C
  H100     1.0000 0.87860  0.13900  0.09230  Biso   1.000  H
  H101     1.0000 0.86750  0.10920  0.02910  Biso   1.000  H
  H102     1.0000 0.86130  0.01640  0.06900  Biso   1.000  H
  C107     1.0000 0.94810  0.97670  0.05570  Biso   1.000  C
  H103     1.0000 0.97940  0.98410  0.04670  Biso   1.000  H
  N11      1.0000 0.94100  0.05560  0.08840  Biso   1.000  N
  O31      1.0000 0.91650  0.89640  0.03700  Biso   1.000  O
  C108     1.0000 0.16480  0.28320  0.72470  Biso   1.000  C
  H104     1.0000 0.19080  0.22400  0.74670  Biso   1.000  H
  H105     1.0000 0.17840  0.31500  0.69880  Biso   1.000  H
  H106     1.0000 0.16400  0.34020  0.75060  Biso   1.000  H
  C109     1.0000 0.10140  0.12740  0.69070  Biso   1.000  C
  H107     1.0000 0.13700  0.09160  0.71770  Biso   1.000  H
  H108     1.0000 0.07000  0.10910  0.70020  Biso   1.000  H
  H109     1.0000 0.09150  0.10170  0.65220  Biso   1.000  H
  C110     1.0000 0.06560  0.30660  0.65960  Biso   1.000  C
  H110     1.0000 0.03010  0.27180  0.63610  Biso   1.000  H
  N12      1.0000 0.10940  0.24120  0.69340  Biso   1.000  N
  O32      1.0000 0.06720  0.40690  0.65610  Biso   1.000  O
  C111     1.0000 0.71810  0.27850  0.33190  Biso   1.000  C
  H111     1.0000 0.75990  0.28530  0.35450  Biso   1.000  H
  H112     1.0000 0.70950  0.24020  0.29630  Biso   1.000  H
  H113     1.0000 0.70070  0.35180  0.32340  Biso   1.000  H
  C112     1.0000 0.89890  0.03800  0.10670  Biso   1.000  C
  H114     1.0000 0.89820  0.10100  0.12980  Biso   1.000  H
  H115     1.0000 0.86110  0.03090  0.07370  Biso   1.000  H
  H116     1.0000 0.90780  0.97120  0.12960  Biso   1.000  H
  Cd5      1.0000 0.52250  0.82465  0.90909  Biso   1.000  Cd
  Cd6      1.0000 0.92987  0.25272  0.48905  Biso   1.000  Cd
  Na3      1.0000 0.02061  0.48750  0.07304  Biso   1.000  Na
  C113     1.0000 0.60190  0.98260  0.97150  Biso   1.000  C
  C114     1.0000 0.64820  0.06460  0.01180  Biso   1.000  C
  C115     1.0000 0.64650  0.09890  0.06320  Biso   1.000  C
  H117     1.0000 0.61730  0.07230  0.07240  Biso   1.000  H
  C116     1.0000 0.68900  0.17290  0.09970  Biso   1.000  C
  H118     1.0000 0.68700  0.20010  0.13250  Biso   1.000  H
  C117     1.0000 0.73350  0.20610  0.08780  Biso   1.000  C
  C118     1.0000 0.73360  0.17510  0.03710  Biso   1.000  C
  H119     1.0000 0.76230  0.20370  0.02770  Biso   1.000  H
  C119     1.0000 0.69260  0.10320  0.00000  Biso   1.000  C
  H120     1.0000 0.69450  0.07990  0.96650  Biso   1.000  H
  C120     1.0000 0.80010  0.27450  0.18810  Biso   1.000  C
  C121     1.0000 0.82190  0.36930  0.22110  Biso   1.000  C
  H121     1.0000 0.81820  0.43760  0.20240  Biso   1.000  H
  C122     1.0000 0.84830  0.36690  0.27870  Biso   1.000  C
  H122     1.0000 0.86440  0.43230  0.29950  Biso   1.000  H
  C123     1.0000 0.85210  0.26700  0.30850  Biso   1.000  C
  C124     1.0000 0.83000  0.17290  0.27460  Biso   1.000  C
  H123     1.0000 0.83220  0.10440  0.29270  Biso   1.000  H
  C125     1.0000 0.80500  0.17620  0.21580  Biso   1.000  C
  H124     1.0000 0.79130  0.11050  0.19460  Biso   1.000  H
  C126     1.0000 0.88050  0.26290  0.37250  Biso   1.000  C
  C127     1.0000 0.88000  0.59820  0.03260  Biso   1.000  C
  C128     1.0000 0.85260  0.51570  0.05810  Biso   1.000  C
  C129     1.0000 0.88940  0.44600  0.10260  Biso   1.000  C
  H125     1.0000 0.93000  0.45400  0.11860  Biso   1.000  H
  C130     1.0000 0.86540  0.36630  0.12250  Biso   1.000  C
  H126     1.0000 0.88980  0.31420  0.14940  Biso   1.000  H
  C131     1.0000 0.80440  0.36060  0.10330  Biso   1.000  C
  C132     1.0000 0.76850  0.43490  0.06080  Biso   1.000  C
  H127     1.0000 0.72800  0.43350  0.04800  Biso   1.000  H
  C133     1.0000 0.79280  0.51110  0.03730  Biso   1.000  C
  H128     1.0000 0.76870  0.55880  0.00760  Biso   1.000  H
  C134     1.0000 0.55490  0.61890  0.86540  Biso   1.000  C
  C135     1.0000 0.59140  0.52480  0.86090  Biso   1.000  C
  C136     1.0000 0.58180  0.47640  0.81010  Biso   1.000  C
  H129     1.0000 0.55160  0.50360  0.77590  Biso   1.000  H
  C137     1.0000 0.61500  0.38910  0.80750  Biso   1.000  C
  H130     1.0000 0.60600  0.35570  0.77200  Biso   1.000  H
  C138     1.0000 0.66230  0.34920  0.85740  Biso   1.000  C
  C139     1.0000 0.67190  0.39560  0.90840  Biso   1.000  C
  H131     1.0000 0.70160  0.36650  0.94240  Biso   1.000  H
  C140     1.0000 0.63910  0.48520  0.91200  Biso   1.000  C
  H132     1.0000 0.64840  0.51880  0.94760  Biso   1.000  H
  C141     1.0000 0.66640  0.16870  0.81400  Biso   1.000  C
  C142     1.0000 0.61780  0.12470  0.81540  Biso   1.000  C
  H133     1.0000 0.60720  0.15080  0.84330  Biso   1.000  H
  C143     1.0000 0.58390  0.04390  0.77760  Biso   1.000  C
  H134     1.0000 0.55210  0.01290  0.78120  Biso   1.000  H
  C144     1.0000 0.59760  0.00880  0.73400  Biso   1.000  C
  C145     1.0000 0.64800  0.05060  0.73440  Biso   1.000  C
  H135     1.0000 0.65990  0.02370  0.70760  Biso   1.000  H
  C146     1.0000 0.68160  0.13160  0.77360  Biso   1.000  C
  H136     1.0000 0.71470  0.16040  0.77190  Biso   1.000  H
  C147     1.0000 0.75960  0.26500  0.88150  Biso   1.000  C
  C148     1.0000 0.79210  0.16380  0.89920  Biso   1.000  C
  H137     1.0000 0.77360  0.09430  0.89070  Biso   1.000  H
  C149     1.0000 0.85130  0.17300  0.92890  Biso   1.000  C
  H138     1.0000 0.87340  0.10750  0.94110  Biso   1.000  H
  C150     1.0000 0.88040  0.27240  0.94190  Biso   1.000  C
  C151     1.0000 0.84800  0.36870  0.92700  Biso   1.000  C
  H139     1.0000 0.86720  0.43730  0.93800  Biso   1.000  H
  C152     1.0000 0.78670  0.36700  0.89590  Biso   1.000  C
  H140     1.0000 0.76510  0.43310  0.88530  Biso   1.000  H
  C153     1.0000 0.94740  0.28240  0.97290  Biso   1.000  C
  C154     1.0000 0.55630  0.93450  0.68840  Biso   1.000  C
  N13      1.0000 0.77820  0.28100  0.12510  Biso   1.000  N
  N14      1.0000 0.69560  0.25940  0.85390  Biso   1.000  N
  O33      1.0000 0.51050  0.89560  0.68970  Biso   1.000  O
  O34      1.0000 0.56740  0.90980  0.64610  Biso   1.000  O
  O35      1.0000 0.56190  0.95080  0.98440  Biso   1.000  O
  O36      1.0000 0.60550  0.94370  0.92820  Biso   1.000  O
  O37      1.0000 0.57260  0.67220  0.91140  Biso   1.000  O
  O38      1.0000 0.50740  0.64190  0.81970  Biso   1.000  O
  O39      1.0000 0.97690  0.19030  0.97840  Biso   1.000  O
  O40      1.0000 0.97140  0.37500  0.99050  Biso   1.000  O
  O41      1.0000 0.84750  0.66430  0.99490  Biso   1.000  O
  O42      1.0000 0.93470  0.60040  0.05230  Biso   1.000  O
  O43      1.0000 0.87950  0.17370  0.39800  Biso   1.000  O
  O44      1.0000 0.90600  0.34890  0.40060  Biso   1.000  O
  C155     1.0000 0.71880  0.68400  0.85290  Biso   1.000  C
  H141     1.0000 0.76090  0.68630  0.87440  Biso   1.000  H
  H142     1.0000 0.70780  0.67700  0.81230  Biso   1.000  H
  H143     1.0000 0.70400  0.62090  0.86540  Biso   1.000  H
  C156     1.0000 0.73430  0.83950  0.91110  Biso   1.000  C
  H144     1.0000 0.77370  0.81410  0.92210  Biso   1.000  H
  H145     1.0000 0.72460  0.82650  0.94250  Biso   1.000  H
  H146     1.0000 0.73160  0.91820  0.90260  Biso   1.000  H
  C157     1.0000 0.63780  0.79870  0.83760  Biso   1.000  C
  H147     1.0000 0.62410  0.85090  0.85540  Biso   1.000  H
  N15      1.0000 0.69540  0.78120  0.86250  Biso   1.000  N
  O45      1.0000 0.60120  0.75430  0.79440  Biso   1.000  O
  C158     1.0000 0.49650  0.78200  0.01210  Biso   1.000  C
  H148     1.0000 0.50980  0.85570  0.01830  Biso   1.000  H
  C159     1.0000 0.49210  0.78480  0.10250  Biso   1.000  C
  H149     1.0000 0.48170  0.73320  0.12480  Biso   1.000  H
  H150     1.0000 0.46680  0.84920  0.09290  Biso   1.000  H
  H151     1.0000 0.53230  0.80790  0.12470  Biso   1.000  H
  C160     1.0000 0.45260  0.63850  0.03770  Biso   1.000  C
  H152     1.0000 0.44780  0.61170  0.07030  Biso   1.000  H
  H153     1.0000 0.47200  0.58230  0.02590  Biso   1.000  H
  H154     1.0000 0.41470  0.65440  0.00620  Biso   1.000  H
  N16      1.0000 0.48570  0.73390  0.05280  Biso   1.000  N
  O46      1.0000 0.49040  0.73760  0.96780  Biso   1.000  O
  C161     1.0000 0.97950  0.85660  0.61120  Biso   1.000  C
  H155     1.0000 0.96660  0.80930  0.63330  Biso   1.000  H
  H156     1.0000 0.01810  0.88510  0.63590  Biso   1.000  H
  H157     1.0000 0.98080  0.81390  0.58030  Biso   1.000  H
  C162     1.0000 0.88280  0.91800  0.56820  Biso   1.000  C
  H158     1.0000 0.87860  0.86100  0.59230  Biso   1.000  H
  H159     1.0000 0.86750  0.89080  0.52910  Biso   1.000  H
  H160     1.0000 0.86130  0.98360  0.56900  Biso   1.000  H
  C163     1.0000 0.94810  0.02330  0.55570  Biso   1.000  C
  H161     1.0000 0.97940  0.01590  0.54670  Biso   1.000  H
  N17      1.0000 0.94100  0.94440  0.58840  Biso   1.000  N
  O47      1.0000 0.91650  0.10360  0.53700  Biso   1.000  O
  C164     1.0000 0.16480  0.71680  0.22470  Biso   1.000  C
  H162     1.0000 0.19080  0.77600  0.24670  Biso   1.000  H
  H163     1.0000 0.17840  0.68500  0.19880  Biso   1.000  H
  H164     1.0000 0.16400  0.65980  0.25060  Biso   1.000  H
  C165     1.0000 0.10140  0.87260  0.19070  Biso   1.000  C
  H165     1.0000 0.13700  0.90840  0.21770  Biso   1.000  H
  H166     1.0000 0.07000  0.89090  0.20020  Biso   1.000  H
  H167     1.0000 0.09150  0.89830  0.15220  Biso   1.000  H
  C166     1.0000 0.06560  0.69340  0.15960  Biso   1.000  C
  H168     1.0000 0.03010  0.72820  0.13610  Biso   1.000  H
  N18      1.0000 0.10940  0.75880  0.19340  Biso   1.000  N
  O48      1.0000 0.06720  0.59310  0.15610  Biso   1.000  O
  C167     1.0000 0.71810  0.72150  0.83190  Biso   1.000  C
  H169     1.0000 0.75990  0.71470  0.85450  Biso   1.000  H
  H170     1.0000 0.70950  0.75980  0.79630  Biso   1.000  H
  H171     1.0000 0.70070  0.64820  0.82340  Biso   1.000  H
  C168     1.0000 0.89890  0.96200  0.60670  Biso   1.000  C
  H172     1.0000 0.89820  0.89900  0.62980  Biso   1.000  H
  H173     1.0000 0.86110  0.96910  0.57370  Biso   1.000  H
  H174     1.0000 0.90780  0.02880  0.62960  Biso   1.000  H
  Cd7      1.0000 0.47750  0.82465  0.59091  Biso   1.000  Cd
  Cd8      1.0000 0.07013  0.25272  0.01095  Biso   1.000  Cd
  Na4      1.0000 0.97939  0.48750  0.42696  Biso   1.000  Na
  C169     1.0000 0.39810  0.98260  0.52850  Biso   1.000  C
  C170     1.0000 0.35180  0.06460  0.48820  Biso   1.000  C
  C171     1.0000 0.35350  0.09890  0.43680  Biso   1.000  C
  H175     1.0000 0.38270  0.07230  0.42760  Biso   1.000  H
  C172     1.0000 0.31100  0.17290  0.40030  Biso   1.000  C
  H176     1.0000 0.31300  0.20010  0.36750  Biso   1.000  H
  C173     1.0000 0.26650  0.20610  0.41220  Biso   1.000  C
  C174     1.0000 0.26640  0.17510  0.46290  Biso   1.000  C
  H177     1.0000 0.23770  0.20370  0.47230  Biso   1.000  H
  C175     1.0000 0.30740  0.10320  0.50000  Biso   1.000  C
  H178     1.0000 0.30550  0.07990  0.53350  Biso   1.000  H
  C176     1.0000 0.19990  0.27450  0.31190  Biso   1.000  C
  C177     1.0000 0.17810  0.36930  0.27890  Biso   1.000  C
  H179     1.0000 0.18180  0.43760  0.29760  Biso   1.000  H
  C178     1.0000 0.15170  0.36690  0.22130  Biso   1.000  C
  H180     1.0000 0.13560  0.43230  0.20050  Biso   1.000  H
  C179     1.0000 0.14790  0.26700  0.19150  Biso   1.000  C
  C180     1.0000 0.17000  0.17290  0.22540  Biso   1.000  C
  H181     1.0000 0.16780  0.10440  0.20730  Biso   1.000  H
  C181     1.0000 0.19500  0.17620  0.28420  Biso   1.000  C
  H182     1.0000 0.20870  0.11050  0.30540  Biso   1.000  H
  C182     1.0000 0.11950  0.26290  0.12750  Biso   1.000  C
  C183     1.0000 0.12000  0.59820  0.46740  Biso   1.000  C
  C184     1.0000 0.14740  0.51570  0.44190  Biso   1.000  C
  C185     1.0000 0.11060  0.44600  0.39740  Biso   1.000  C
  H183     1.0000 0.07000  0.45400  0.38140  Biso   1.000  H
  C186     1.0000 0.13460  0.36630  0.37750  Biso   1.000  C
  H184     1.0000 0.11020  0.31420  0.35060  Biso   1.000  H
  C187     1.0000 0.19560  0.36060  0.39670  Biso   1.000  C
  C188     1.0000 0.23150  0.43490  0.43920  Biso   1.000  C
  H185     1.0000 0.27200  0.43350  0.45200  Biso   1.000  H
  C189     1.0000 0.20720  0.51110  0.46270  Biso   1.000  C
  H186     1.0000 0.23130  0.55880  0.49240  Biso   1.000  H
  C190     1.0000 0.44510  0.61890  0.63460  Biso   1.000  C
  C191     1.0000 0.40860  0.52480  0.63910  Biso   1.000  C
  C192     1.0000 0.41820  0.47640  0.68990  Biso   1.000  C
  H187     1.0000 0.44840  0.50360  0.72410  Biso   1.000  H
  C193     1.0000 0.38500  0.38910  0.69250  Biso   1.000  C
  H188     1.0000 0.39400  0.35570  0.72800  Biso   1.000  H
  C194     1.0000 0.33770  0.34920  0.64260  Biso   1.000  C
  C195     1.0000 0.32810  0.39560  0.59160  Biso   1.000  C
  H189     1.0000 0.29840  0.36650  0.55760  Biso   1.000  H
  C196     1.0000 0.36090  0.48520  0.58800  Biso   1.000  C
  H190     1.0000 0.35160  0.51880  0.55240  Biso   1.000  H
  C197     1.0000 0.33360  0.16870  0.68600  Biso   1.000  C
  C198     1.0000 0.38220  0.12470  0.68460  Biso   1.000  C
  H191     1.0000 0.39280  0.15080  0.65670  Biso   1.000  H
  C199     1.0000 0.41610  0.04390  0.72240  Biso   1.000  C
  H192     1.0000 0.44790  0.01290  0.71880  Biso   1.000  H
  C200     1.0000 0.40240  0.00880  0.76600  Biso   1.000  C
  C201     1.0000 0.35200  0.05060  0.76560  Biso   1.000  C
  H193     1.0000 0.34010  0.02370  0.79240  Biso   1.000  H
  C202     1.0000 0.31840  0.13160  0.72640  Biso   1.000  C
  H194     1.0000 0.28530  0.16040  0.72810  Biso   1.000  H
  C203     1.0000 0.24040  0.26500  0.61850  Biso   1.000  C
  C204     1.0000 0.20790  0.16380  0.60080  Biso   1.000  C
  H195     1.0000 0.22640  0.09430  0.60930  Biso   1.000  H
  C205     1.0000 0.14870  0.17300  0.57110  Biso   1.000  C
  H196     1.0000 0.12660  0.10750  0.55890  Biso   1.000  H
  C206     1.0000 0.11960  0.27240  0.55810  Biso   1.000  C
  C207     1.0000 0.15200  0.36870  0.57300  Biso   1.000  C
  H197     1.0000 0.13280  0.43730  0.56200  Biso   1.000  H
  C208     1.0000 0.21330  0.36700  0.60410  Biso   1.000  C
  H198     1.0000 0.23490  0.43310  0.61470  Biso   1.000  H
  C209     1.0000 0.05260  0.28240  0.52710  Biso   1.000  C
  C210     1.0000 0.44370  0.93450  0.81160  Biso   1.000  C
  N19      1.0000 0.22180  0.28100  0.37490  Biso   1.000  N
  N20      1.0000 0.30440  0.25940  0.64610  Biso   1.000  N
  O49      1.0000 0.48950  0.89560  0.81030  Biso   1.000  O
  O50      1.0000 0.43260  0.90980  0.85390  Biso   1.000  O
  O51      1.0000 0.43810  0.95080  0.51560  Biso   1.000  O
  O52      1.0000 0.39450  0.94370  0.57180  Biso   1.000  O
  O53      1.0000 0.42740  0.67220  0.58860  Biso   1.000  O
  O54      1.0000 0.49260  0.64190  0.68030  Biso   1.000  O
  O55      1.0000 0.02310  0.19030  0.52160  Biso   1.000  O
  O56      1.0000 0.02860  0.37500  0.50950  Biso   1.000  O
  O57      1.0000 0.15250  0.66430  0.50510  Biso   1.000  O
  O58      1.0000 0.06530  0.60040  0.44770  Biso   1.000  O
  O59      1.0000 0.12050  0.17370  0.10200  Biso   1.000  O
  O60      1.0000 0.09400  0.34890  0.09940  Biso   1.000  O
  C211     1.0000 0.28120  0.68400  0.64710  Biso   1.000  C
  H199     1.0000 0.23910  0.68630  0.62560  Biso   1.000  H
  H200     1.0000 0.29220  0.67700  0.68770  Biso   1.000  H
  H201     1.0000 0.29600  0.62090  0.63460  Biso   1.000  H
  C212     1.0000 0.26570  0.83950  0.58890  Biso   1.000  C
  H202     1.0000 0.22630  0.81410  0.57790  Biso   1.000  H
  H203     1.0000 0.27540  0.82650  0.55750  Biso   1.000  H
  H204     1.0000 0.26840  0.91820  0.59740  Biso   1.000  H
  C213     1.0000 0.36220  0.79870  0.66240  Biso   1.000  C
  H205     1.0000 0.37590  0.85090  0.64460  Biso   1.000  H
  N21      1.0000 0.30460  0.78120  0.63750  Biso   1.000  N
  O61      1.0000 0.39880  0.75430  0.70560  Biso   1.000  O
  C214     1.0000 0.50350  0.78200  0.48790  Biso   1.000  C
  H206     1.0000 0.49020  0.85570  0.48170  Biso   1.000  H
  C215     1.0000 0.50790  0.78480  0.39750  Biso   1.000  C
  H207     1.0000 0.51830  0.73320  0.37520  Biso   1.000  H
  H208     1.0000 0.53320  0.84920  0.40710  Biso   1.000  H
  H209     1.0000 0.46770  0.80790  0.37530  Biso   1.000  H
  C216     1.0000 0.54740  0.63850  0.46230  Biso   1.000  C
  H210     1.0000 0.55220  0.61170  0.42970  Biso   1.000  H
  H211     1.0000 0.52800  0.58230  0.47410  Biso   1.000  H
  H212     1.0000 0.58530  0.65440  0.49380  Biso   1.000  H
  N22      1.0000 0.51430  0.73390  0.44720  Biso   1.000  N
  O62      1.0000 0.50960  0.73760  0.53220  Biso   1.000  O
  C217     1.0000 0.02050  0.85660  0.88880  Biso   1.000  C
  H213     1.0000 0.03340  0.80930  0.86670  Biso   1.000  H
  H214     1.0000 0.98190  0.88510  0.86410  Biso   1.000  H
  H215     1.0000 0.01920  0.81390  0.91970  Biso   1.000  H
  C218     1.0000 0.11720  0.91800  0.93180  Biso   1.000  C
  H216     1.0000 0.12140  0.86100  0.90770  Biso   1.000  H
  H217     1.0000 0.13250  0.89080  0.97090  Biso   1.000  H
  H218     1.0000 0.13870  0.98360  0.93100  Biso   1.000  H
  C219     1.0000 0.05190  0.02330  0.94430  Biso   1.000  C
  H219     1.0000 0.02060  0.01590  0.95330  Biso   1.000  H
  N23      1.0000 0.05900  0.94440  0.91160  Biso   1.000  N
  O63      1.0000 0.08350  0.10360  0.96300  Biso   1.000  O
  C220     1.0000 0.83520  0.71680  0.27530  Biso   1.000  C
  H220     1.0000 0.80920  0.77600  0.25330  Biso   1.000  H
  H221     1.0000 0.82160  0.68500  0.30120  Biso   1.000  H
  H222     1.0000 0.83600  0.65980  0.24940  Biso   1.000  H
  C221     1.0000 0.89860  0.87260  0.30930  Biso   1.000  C
  H223     1.0000 0.86300  0.90840  0.28230  Biso   1.000  H
  H224     1.0000 0.93000  0.89090  0.29980  Biso   1.000  H
  H225     1.0000 0.90850  0.89830  0.34780  Biso   1.000  H
  C222     1.0000 0.93440  0.69340  0.34040  Biso   1.000  C
  H226     1.0000 0.96990  0.72820  0.36390  Biso   1.000  H
  N24      1.0000 0.89060  0.75880  0.30660  Biso   1.000  N
  O64      1.0000 0.93280  0.59310  0.34390  Biso   1.000  O
  C223     1.0000 0.28190  0.72150  0.66810  Biso   1.000  C
  H227     1.0000 0.24010  0.71470  0.64550  Biso   1.000  H
  H228     1.0000 0.29050  0.75980  0.70370  Biso   1.000  H
  H229     1.0000 0.29930  0.64820  0.67660  Biso   1.000  H
  C224     1.0000 0.10110  0.96200  0.89330  Biso   1.000  C
  H230     1.0000 0.10180  0.89900  0.87020  Biso   1.000  H
  H231     1.0000 0.13890  0.96910  0.92630  Biso   1.000  H
  H232     1.0000 0.09220  0.02880  0.87040  Biso   1.000  H
  Cd9      1.0000 0.50000  0.23410  0.25000  Biso   1.000  Cd
  Cd10     1.0000 0.50000  0.76590  0.75000  Biso   1.000  Cd
