data_image0
_cell_length_a       18.49
_cell_length_b       27.509
_cell_length_c       22.86
_cell_angle_alpha    90
_cell_angle_beta     123.23
_cell_angle_gamma    90

_symmetry_space_group_name_H-M    "P 1"
_symmetry_int_tables_number       1

loop_
  _symmetry_equiv_pos_as_xyz
  'x, y, z'

loop_
  _atom_site_label
  _atom_site_occupancy
  _atom_site_fract_x
  _atom_site_fract_y
  _atom_site_fract_z
  _atom_site_thermal_displace_type
  _atom_site_B_iso_or_equiv
  _atom_site_type_symbol
  O1       1.0000 0.34230  0.21030  0.55100  Biso   1.000  O
  O2       1.0000 0.27370  0.22020  0.43540  Biso   1.000  O
  C1       1.0000 0.29680  0.23380  0.49590  Biso   1.000  C
  O3       1.0000 0.53650  0.63820  0.19780  Biso   1.000  O
  O4       1.0000 0.54350  0.57780  0.13910  Biso   1.000  O
  C2       1.0000 0.50800  0.59890  0.16680  Biso   1.000  C
  C3       1.0000 0.43210  0.57550  0.16180  Biso   1.000  C
  C4       1.0000 0.38590  0.59940  0.18290  Biso   1.000  C
  H1       1.0000 0.39980  0.63130  0.19840  Biso   1.000  H
  C5       1.0000 0.31780  0.57640  0.18150  Biso   1.000  C
  H2       1.0000 0.28710  0.59300  0.19660  Biso   1.000  H
  C6       1.0000 0.29560  0.52910  0.15790  Biso   1.000  C
  C7       1.0000 0.22390  0.50320  0.15650  Biso   1.000  C
  C8       1.0000 0.14660  0.52570  0.13240  Biso   1.000  C
  H3       1.0000 0.13870  0.55800  0.11790  Biso   1.000  H
  C9       1.0000 0.07780  0.49950  0.12960  Biso   1.000  C
  C10      1.0000 0.99200  0.52400  0.09700  Biso   1.000  C
  C11      1.0000 0.95750  0.54980  0.03450  Biso   1.000  C
  H4       1.0000 0.98760  0.55080  0.01260  Biso   1.000  H
  C12      1.0000 0.88050  0.57370  0.00510  Biso   1.000  C
  H5       1.0000 0.85850  0.59030  0.96330  Biso   1.000  H
  C13      1.0000 0.83400  0.57340  0.03710  Biso   1.000  C
  O5       1.0000 0.50910  0.64430  0.84120  Biso   1.000  O
  O6       1.0000 0.52500  0.57790  0.89870  Biso   1.000  O
  C14      1.0000 0.48710  0.60070  0.84200  Biso   1.000  C
  C15      1.0000 0.41650  0.57700  0.77680  Biso   1.000  C
  C16      1.0000 0.37680  0.60170  0.71480  Biso   1.000  C
  H6       1.0000 0.39090  0.63410  0.71410  Biso   1.000  H
  C17      1.0000 0.31340  0.57790  0.65080  Biso   1.000  C
  H7       1.0000 0.28740  0.59430  0.60830  Biso   1.000  H
  C18      1.0000 0.29190  0.53110  0.65320  Biso   1.000  C
  C19      1.0000 0.23380  0.50360  0.58630  Biso   1.000  C
  C20      1.0000 0.15880  0.52550  0.53050  Biso   1.000  C
  H8       1.0000 0.14380  0.55680  0.53540  Biso   1.000  H
  C21      1.0000 0.10720  0.50070  0.46830  Biso   1.000  C
  C22      1.0000 0.02680  0.52400  0.41170  Biso   1.000  C
  C23      1.0000 0.97100  0.54810  0.42330  Biso   1.000  C
  H9       1.0000 0.98540  0.54990  0.46910  Biso   1.000  H
  C24      1.0000 0.89540  0.56990  0.37240  Biso   1.000  C
  H10      1.0000 0.85920  0.58540  0.38290  Biso   1.000  H
  C25      1.0000 0.87540  0.56780  0.30390  Biso   1.000  C
  C26      1.0000 0.25050  0.45610  0.57830  Biso   1.000  C
  H11      1.0000 0.29880  0.44090  0.61560  Biso   1.000  H
  C27      1.0000 0.79420  0.59250  0.24710  Biso   1.000  C
  O7       1.0000 0.73800  0.60610  0.25900  Biso   1.000  O
  C28      1.0000 0.25290  0.22870  0.27010  Biso   1.000  C
  C29      1.0000 0.15070  0.35390  0.22950  Biso   1.000  C
  H12      1.0000 0.11480  0.37150  0.23840  Biso   1.000  H
  C30      1.0000 0.16980  0.30590  0.25070  Biso   1.000  C
  H13      1.0000 0.14470  0.29130  0.27220  Biso   1.000  H
  C31      1.0000 0.22480  0.27970  0.24070  Biso   1.000  C
  C32      1.0000 0.25670  0.30080  0.20420  Biso   1.000  C
  H14      1.0000 0.29200  0.28300  0.19490  Biso   1.000  H
  C33      1.0000 0.23600  0.34830  0.18180  Biso   1.000  C
  H15      1.0000 0.25740  0.36200  0.15710  Biso   1.000  H
  C34      1.0000 0.40680  0.52730  0.13480  Biso   1.000  C
  H16      1.0000 0.43530  0.51110  0.11730  Biso   1.000  H
  C35      1.0000 0.34070  0.50510  0.13480  Biso   1.000  C
  H17      1.0000 0.32590  0.47320  0.11890  Biso   1.000  H
  C36      1.0000 0.23480  0.45510  0.17650  Biso   1.000  C
  H18      1.0000 0.28710  0.44000  0.19120  Biso   1.000  H
  C37      1.0000 0.16960  0.42810  0.17550  Biso   1.000  C
  C38      1.0000 0.09060  0.45190  0.15130  Biso   1.000  C
  H19      1.0000 0.04610  0.43510  0.15000  Biso   1.000  H
  C39      1.0000 0.86720  0.54820  0.09790  Biso   1.000  C
  H20      1.0000 0.83750  0.54820  0.12000  Biso   1.000  H
  C40      1.0000 0.94350  0.52280  0.12740  Biso   1.000  C
  H21      1.0000 0.96310  0.50460  0.16770  Biso   1.000  H
  O8       1.0000 0.21640  0.20760  0.29480  Biso   1.000  O
  O9       1.0000 0.31780  0.21160  0.26980  Biso   1.000  O
  C41      1.0000 0.18430  0.37590  0.19520  Biso   1.000  C
  Co1      1.0000 0.63885  0.64638  0.19276  Biso   1.000  Co
  Co2      1.0000 0.60981  0.64471  0.94525  Biso   1.000  Co
  Co3      1.0000 0.75401  0.65964  0.12383  Biso   1.000  Co
  O10      1.0000 0.71150  0.60980  0.93950  Biso   1.000  O
  O11      1.0000 0.71920  0.61260  0.03810  Biso   1.000  O
  O12      1.0000 0.78940  0.60050  0.18950  Biso   1.000  O
  O13      1.0000 0.62490  0.65290  0.09480  Biso   1.000  O
  O14      1.0000 0.53510  0.66110  0.98270  Biso   1.000  O
  C42      1.0000 0.75060  0.60030  0.00320  Biso   1.000  C
  C43      1.0000 0.92820  0.54270  0.28830  Biso   1.000  C
  H22      1.0000 0.91350  0.54010  0.24250  Biso   1.000  H
  C44      1.0000 0.00310  0.52170  0.34280  Biso   1.000  C
  H23      1.0000 0.03910  0.50540  0.33280  Biso   1.000  H
  C45      1.0000 0.12860  0.45330  0.46270  Biso   1.000  C
  H24      1.0000 0.09440  0.43680  0.42050  Biso   1.000  H
  C46      1.0000 0.19890  0.43010  0.51760  Biso   1.000  C
  C47      1.0000 0.33070  0.50680  0.71840  Biso   1.000  C
  H25      1.0000 0.31430  0.47520  0.72060  Biso   1.000  H
  C48      1.0000 0.39180  0.53000  0.77760  Biso   1.000  C
  H26      1.0000 0.41780  0.51360  0.82010  Biso   1.000  H
  C49      1.0000 0.22270  0.37980  0.51140  Biso   1.000  C
  C50      1.0000 0.26340  0.34780  0.57080  Biso   1.000  C
  H27      1.0000 0.27490  0.35880  0.61350  Biso   1.000  H
  C51      1.0000 0.28520  0.30190  0.56540  Biso   1.000  C
  H28      1.0000 0.31190  0.28170  0.60440  Biso   1.000  H
  C52      1.0000 0.26760  0.28460  0.50090  Biso   1.000  C
  C53      1.0000 0.22920  0.31450  0.44440  Biso   1.000  C
  H29      1.0000 0.21870  0.30320  0.40210  Biso   1.000  H
  C54      1.0000 0.20560  0.36130  0.44860  Biso   1.000  C
  H30      1.0000 0.17770  0.38070  0.40880  Biso   1.000  H
  C55      1.0000 0.55270  0.66130  0.04340  Biso   1.000  C
  H31      1.0000 0.50860  0.66820  0.05030  Biso   1.000  H
  O15      1.0000 0.88110  0.66290  0.15000  Biso   1.000  O
  C56      1.0000 0.94220  0.66490  0.21190  Biso   1.000  C
  H32      1.0000 0.92250  0.66600  0.24150  Biso   1.000  H
  N1       1.0000 0.02750  0.66580  0.24800  Biso   1.000  N
  C57      1.0000 0.06600  0.64100  0.21600  Biso   1.000  C
  H33      1.0000 0.11570  0.65940  0.22450  Biso   1.000  H
  H34      1.0000 0.02460  0.63920  0.16610  Biso   1.000  H
  C58      1.0000 0.09500  0.59000  0.24600  Biso   1.000  C
  H35      1.0000 0.14580  0.59160  0.29250  Biso   1.000  H
  H36      1.0000 0.10680  0.57120  0.21680  Biso   1.000  H
  H37      1.0000 0.04930  0.57410  0.24770  Biso   1.000  H
  C59      1.0000 0.09300  0.65800  0.32000  Biso   1.000  C
  H38      1.0000 0.14090  0.68040  0.33340  Biso   1.000  H
  H39      1.0000 0.11490  0.62560  0.32640  Biso   1.000  H
  C60      1.0000 0.06400  0.66700  0.37100  Biso   1.000  C
  H40      1.0000 0.06010  0.70070  0.37670  Biso   1.000  H
  H41      1.0000 0.10490  0.65200  0.41500  Biso   1.000  H
  H42      1.0000 0.00820  0.65180  0.35170  Biso   1.000  H
  C61      1.0000 0.92410  0.69840  0.17400  Biso   1.000  C
  H43      1.0000 0.89690  0.72650  0.17520  Biso   1.000  H
  N2       1.0000 0.00650  0.70100  0.20000  Biso   1.000  N
  C62      1.0000 0.03600  0.67900  0.15900  Biso   1.000  C
  H44      1.0000 0.05010  0.70430  0.13770  Biso   1.000  H
  H45      1.0000 0.98930  0.65960  0.12220  Biso   1.000  H
  C63      1.0000 0.11500  0.64700  0.20400  Biso   1.000  C
  H46      1.0000 0.13060  0.64790  0.25190  Biso   1.000  H
  H47      1.0000 0.16190  0.65840  0.20180  Biso   1.000  H
  H48      1.0000 0.10120  0.61400  0.18750  Biso   1.000  H
  C64      1.0000 0.06400  0.74190  0.22800  Biso   1.000  C
  H49      1.0000 0.03280  0.77090  0.20220  Biso   1.000  H
  H50      1.0000 0.11160  0.73700  0.22260  Biso   1.000  H
  C65      1.0000 0.09800  0.74910  0.30550  Biso   1.000  C
  H51      1.0000 0.05270  0.76100  0.31000  Biso   1.000  H
  H52      1.0000 0.14480  0.77220  0.32540  Biso   1.000  H
  H53      1.0000 0.11890  0.71860  0.32960  Biso   1.000  H
  O16      1.0000 0.65770  0.71030  0.94900  Biso   1.000  O
  O17      1.0000 0.72630  0.72020  0.06460  Biso   1.000  O
  C66      1.0000 0.70320  0.73380  0.00410  Biso   1.000  C
  O18      1.0000 0.46350  0.13820  0.30220  Biso   1.000  O
  O19      1.0000 0.45650  0.07780  0.36090  Biso   1.000  O
  C67      1.0000 0.49200  0.09890  0.33320  Biso   1.000  C
  C68      1.0000 0.56790  0.07550  0.33820  Biso   1.000  C
  C69      1.0000 0.61410  0.09940  0.31710  Biso   1.000  C
  H54      1.0000 0.60020  0.13130  0.30160  Biso   1.000  H
  C70      1.0000 0.68220  0.07640  0.31850  Biso   1.000  C
  H55      1.0000 0.71290  0.09300  0.30340  Biso   1.000  H
  C71      1.0000 0.70440  0.02910  0.34210  Biso   1.000  C
  C72      1.0000 0.77610  0.00320  0.34350  Biso   1.000  C
  C73      1.0000 0.85340  0.02570  0.36760  Biso   1.000  C
  H56      1.0000 0.86130  0.05800  0.38210  Biso   1.000  H
  C74      1.0000 0.92220  0.99950  0.37040  Biso   1.000  C
  C75      1.0000 0.00800  0.02400  0.40300  Biso   1.000  C
  C76      1.0000 0.04250  0.04980  0.46550  Biso   1.000  C
  H57      1.0000 0.01240  0.05080  0.48740  Biso   1.000  H
  C77      1.0000 0.11950  0.07370  0.49490  Biso   1.000  C
  H58      1.0000 0.14150  0.09030  0.53670  Biso   1.000  H
  C78      1.0000 0.16600  0.07340  0.46290  Biso   1.000  C
  O20      1.0000 0.49090  0.14430  0.65880  Biso   1.000  O
  O21      1.0000 0.47500  0.07790  0.60130  Biso   1.000  O
  C79      1.0000 0.51290  0.10070  0.65800  Biso   1.000  C
  C80      1.0000 0.58350  0.07700  0.72320  Biso   1.000  C
  C81      1.0000 0.62320  0.10170  0.78520  Biso   1.000  C
  H59      1.0000 0.60910  0.13410  0.78590  Biso   1.000  H
  C82      1.0000 0.68660  0.07790  0.84920  Biso   1.000  C
  H60      1.0000 0.71260  0.09430  0.89170  Biso   1.000  H
  C83      1.0000 0.70810  0.03110  0.84680  Biso   1.000  C
  C84      1.0000 0.76620  0.00360  0.91370  Biso   1.000  C
  C85      1.0000 0.84120  0.02550  0.96950  Biso   1.000  C
  H61      1.0000 0.85620  0.05680  0.96460  Biso   1.000  H
  C86      1.0000 0.89280  0.00070  0.03170  Biso   1.000  C
  C87      1.0000 0.97320  0.02400  0.08830  Biso   1.000  C
  C88      1.0000 0.02900  0.04810  0.07670  Biso   1.000  C
  H62      1.0000 0.01460  0.04990  0.03090  Biso   1.000  H
  C89      1.0000 0.10460  0.06990  0.12760  Biso   1.000  C
  H63      1.0000 0.14080  0.08540  0.11710  Biso   1.000  H
  C90      1.0000 0.12460  0.06780  0.19610  Biso   1.000  C
  C91      1.0000 0.74950  0.95610  0.92170  Biso   1.000  C
  H64      1.0000 0.70120  0.94090  0.88440  Biso   1.000  H
  C92      1.0000 0.20580  0.09250  0.25290  Biso   1.000  C
  O22      1.0000 0.26200  0.10610  0.24100  Biso   1.000  O
  C93      1.0000 0.74710  0.72870  0.22990  Biso   1.000  C
  C94      1.0000 0.84930  0.85390  0.27050  Biso   1.000  C
  H65      1.0000 0.88520  0.87150  0.26160  Biso   1.000  H
  C95      1.0000 0.83020  0.80590  0.24930  Biso   1.000  C
  H66      1.0000 0.85530  0.79130  0.22780  Biso   1.000  H
  C96      1.0000 0.77520  0.77970  0.25930  Biso   1.000  C
  C97      1.0000 0.74330  0.80080  0.29580  Biso   1.000  C
  H67      1.0000 0.70800  0.78300  0.30510  Biso   1.000  H
  C98      1.0000 0.76400  0.84830  0.31820  Biso   1.000  C
  H68      1.0000 0.74260  0.86200  0.34290  Biso   1.000  H
  C99      1.0000 0.59320  0.02730  0.36520  Biso   1.000  C
  H69      1.0000 0.56470  0.01110  0.38270  Biso   1.000  H
  C100     1.0000 0.65930  0.00510  0.36520  Biso   1.000  C
  H70      1.0000 0.67410  0.97320  0.38110  Biso   1.000  H
  C101     1.0000 0.76520  0.95510  0.32350  Biso   1.000  C
  H71      1.0000 0.71290  0.94000  0.30880  Biso   1.000  H
  C102     1.0000 0.83040  0.92810  0.32450  Biso   1.000  C
  C103     1.0000 0.90940  0.95190  0.34870  Biso   1.000  C
  H72      1.0000 0.95390  0.93510  0.35000  Biso   1.000  H
  C104     1.0000 0.13280  0.04820  0.40210  Biso   1.000  C
  H73      1.0000 0.16250  0.04820  0.38000  Biso   1.000  H
  C105     1.0000 0.05650  0.02280  0.37260  Biso   1.000  C
  H74      1.0000 0.03690  0.00460  0.33230  Biso   1.000  H
  O23      1.0000 0.78360  0.70760  0.20520  Biso   1.000  O
  O24      1.0000 0.68220  0.71160  0.23020  Biso   1.000  O
  C106     1.0000 0.81570  0.87590  0.30480  Biso   1.000  C
  Co4      1.0000 0.36115  0.14638  0.30724  Biso   1.000  Co
  Co5      1.0000 0.39019  0.14471  0.55475  Biso   1.000  Co
  Co6      1.0000 0.24599  0.15964  0.37617  Biso   1.000  Co
  O25      1.0000 0.28850  0.10980  0.56050  Biso   1.000  O
  O26      1.0000 0.28080  0.11260  0.46190  Biso   1.000  O
  O27      1.0000 0.21060  0.10050  0.31050  Biso   1.000  O
  O28      1.0000 0.37510  0.15290  0.40520  Biso   1.000  O
  O29      1.0000 0.46490  0.16110  0.51730  Biso   1.000  O
  C107     1.0000 0.24940  0.10030  0.49680  Biso   1.000  C
  C108     1.0000 0.07180  0.04270  0.21170  Biso   1.000  C
  H75      1.0000 0.08650  0.04010  0.25750  Biso   1.000  H
  C109     1.0000 0.99690  0.02170  0.15720  Biso   1.000  C
  H76      1.0000 0.96090  0.00540  0.16720  Biso   1.000  H
  C110     1.0000 0.87140  0.95330  0.03730  Biso   1.000  C
  H77      1.0000 0.90560  0.93680  0.07950  Biso   1.000  H
  C111     1.0000 0.80110  0.93010  0.98240  Biso   1.000  C
  C112     1.0000 0.66930  0.00680  0.78160  Biso   1.000  C
  H78      1.0000 0.68570  0.97520  0.77940  Biso   1.000  H
  C113     1.0000 0.60820  0.03000  0.72240  Biso   1.000  C
  H79      1.0000 0.58220  0.01360  0.67990  Biso   1.000  H
  C114     1.0000 0.77730  0.87980  0.98860  Biso   1.000  C
  C115     1.0000 0.73660  0.84780  0.92920  Biso   1.000  C
  H80      1.0000 0.72510  0.85880  0.88650  Biso   1.000  H
  C116     1.0000 0.71480  0.80190  0.93460  Biso   1.000  C
  H81      1.0000 0.68810  0.78170  0.89560  Biso   1.000  H
  C117     1.0000 0.73240  0.78460  0.99910  Biso   1.000  C
  C118     1.0000 0.77080  0.81450  0.05560  Biso   1.000  C
  H82      1.0000 0.78130  0.80320  0.09790  Biso   1.000  H
  C119     1.0000 0.79440  0.86130  0.05140  Biso   1.000  C
  H83      1.0000 0.82230  0.88070  0.09120  Biso   1.000  H
  C120     1.0000 0.44730  0.16130  0.45660  Biso   1.000  C
  H84      1.0000 0.49140  0.16820  0.44970  Biso   1.000  H
  O30      1.0000 0.11890  0.16290  0.35000  Biso   1.000  O
  C121     1.0000 0.05780  0.16490  0.28810  Biso   1.000  C
  H85      1.0000 0.07750  0.16600  0.25850  Biso   1.000  H
  N3       1.0000 0.97250  0.16580  0.25200  Biso   1.000  N
  C122     1.0000 0.93400  0.14100  0.28400  Biso   1.000  C
  H86      1.0000 0.88430  0.15940  0.27550  Biso   1.000  H
  H87      1.0000 0.97540  0.13920  0.33390  Biso   1.000  H
  C123     1.0000 0.90500  0.09000  0.25400  Biso   1.000  C
  H88      1.0000 0.85420  0.09160  0.20750  Biso   1.000  H
  H89      1.0000 0.89320  0.07120  0.28320  Biso   1.000  H
  H90      1.0000 0.95070  0.07410  0.25230  Biso   1.000  H
  C124     1.0000 0.90700  0.15800  0.18000  Biso   1.000  C
  H91      1.0000 0.85910  0.18040  0.16660  Biso   1.000  H
  H92      1.0000 0.88510  0.12560  0.17360  Biso   1.000  H
  C125     1.0000 0.93600  0.16700  0.12900  Biso   1.000  C
  H93      1.0000 0.93990  0.20070  0.12330  Biso   1.000  H
  H94      1.0000 0.89510  0.15200  0.08500  Biso   1.000  H
  H95      1.0000 0.99180  0.15180  0.14830  Biso   1.000  H
  C126     1.0000 0.07590  0.19840  0.32600  Biso   1.000  C
  H96      1.0000 0.10310  0.22650  0.32480  Biso   1.000  H
  N4       1.0000 0.99350  0.20100  0.30000  Biso   1.000  N
  C127     1.0000 0.96400  0.17900  0.34100  Biso   1.000  C
  H97      1.0000 0.94990  0.20430  0.36230  Biso   1.000  H
  H98      1.0000 0.01070  0.15960  0.37780  Biso   1.000  H
  C128     1.0000 0.88500  0.14700  0.29600  Biso   1.000  C
  H99      1.0000 0.86940  0.14790  0.24810  Biso   1.000  H
  H100     1.0000 0.83810  0.15840  0.29820  Biso   1.000  H
  H101     1.0000 0.89880  0.11400  0.31250  Biso   1.000  H
  C129     1.0000 0.93600  0.24190  0.27200  Biso   1.000  C
  H102     1.0000 0.96720  0.27090  0.29780  Biso   1.000  H
  H103     1.0000 0.88840  0.23700  0.27740  Biso   1.000  H
  C130     1.0000 0.90200  0.24910  0.19450  Biso   1.000  C
  H104     1.0000 0.94730  0.26100  0.19000  Biso   1.000  H
  H105     1.0000 0.85520  0.27220  0.17460  Biso   1.000  H
  H106     1.0000 0.88110  0.21860  0.17040  Biso   1.000  H
  O31      1.0000 0.65770  0.78970  0.44900  Biso   1.000  O
  O32      1.0000 0.72630  0.77980  0.56460  Biso   1.000  O
  C131     1.0000 0.70320  0.76620  0.50410  Biso   1.000  C
  O33      1.0000 0.46350  0.36180  0.80220  Biso   1.000  O
  O34      1.0000 0.45650  0.42220  0.86090  Biso   1.000  O
  C132     1.0000 0.49200  0.40110  0.83320  Biso   1.000  C
  C133     1.0000 0.56790  0.42450  0.83820  Biso   1.000  C
  C134     1.0000 0.61410  0.40060  0.81710  Biso   1.000  C
  H107     1.0000 0.60020  0.36870  0.80160  Biso   1.000  H
  C135     1.0000 0.68220  0.42360  0.81850  Biso   1.000  C
  H108     1.0000 0.71290  0.40700  0.80340  Biso   1.000  H
  C136     1.0000 0.70440  0.47090  0.84210  Biso   1.000  C
  C137     1.0000 0.77610  0.49680  0.84350  Biso   1.000  C
  C138     1.0000 0.85340  0.47430  0.86760  Biso   1.000  C
  H109     1.0000 0.86130  0.44200  0.88210  Biso   1.000  H
  C139     1.0000 0.92220  0.50050  0.87040  Biso   1.000  C
  C140     1.0000 0.00800  0.47600  0.90300  Biso   1.000  C
  C141     1.0000 0.04250  0.45020  0.96550  Biso   1.000  C
  H110     1.0000 0.01240  0.44920  0.98740  Biso   1.000  H
  C142     1.0000 0.11950  0.42630  0.99490  Biso   1.000  C
  H111     1.0000 0.14150  0.40970  0.03670  Biso   1.000  H
  C143     1.0000 0.16600  0.42660  0.96290  Biso   1.000  C
  O35      1.0000 0.49090  0.35570  0.15880  Biso   1.000  O
  O36      1.0000 0.47500  0.42210  0.10130  Biso   1.000  O
  C144     1.0000 0.51290  0.39930  0.15800  Biso   1.000  C
  C145     1.0000 0.58350  0.42300  0.22320  Biso   1.000  C
  C146     1.0000 0.62320  0.39830  0.28520  Biso   1.000  C
  H112     1.0000 0.60910  0.36590  0.28590  Biso   1.000  H
  C147     1.0000 0.68660  0.42210  0.34920  Biso   1.000  C
  H113     1.0000 0.71260  0.40570  0.39170  Biso   1.000  H
  C148     1.0000 0.70810  0.46890  0.34680  Biso   1.000  C
  C149     1.0000 0.76620  0.49640  0.41370  Biso   1.000  C
  C150     1.0000 0.84120  0.47450  0.46950  Biso   1.000  C
  H114     1.0000 0.85620  0.44320  0.46460  Biso   1.000  H
  C151     1.0000 0.89280  0.49930  0.53170  Biso   1.000  C
  C152     1.0000 0.97320  0.47600  0.58830  Biso   1.000  C
  C153     1.0000 0.02900  0.45190  0.57670  Biso   1.000  C
  H115     1.0000 0.01460  0.45010  0.53090  Biso   1.000  H
  C154     1.0000 0.10460  0.43010  0.62760  Biso   1.000  C
  H116     1.0000 0.14080  0.41460  0.61710  Biso   1.000  H
  C155     1.0000 0.12460  0.43220  0.69610  Biso   1.000  C
  C156     1.0000 0.74950  0.54390  0.42170  Biso   1.000  C
  H117     1.0000 0.70120  0.55910  0.38440  Biso   1.000  H
  C157     1.0000 0.20580  0.40750  0.75290  Biso   1.000  C
  O37      1.0000 0.26200  0.39390  0.74100  Biso   1.000  O
  C158     1.0000 0.74710  0.77130  0.72990  Biso   1.000  C
  C159     1.0000 0.84930  0.64610  0.77050  Biso   1.000  C
  H118     1.0000 0.88520  0.62850  0.76160  Biso   1.000  H
  C160     1.0000 0.83020  0.69410  0.74930  Biso   1.000  C
  H119     1.0000 0.85530  0.70870  0.72780  Biso   1.000  H
  C161     1.0000 0.77520  0.72030  0.75930  Biso   1.000  C
  C162     1.0000 0.74330  0.69920  0.79580  Biso   1.000  C
  H120     1.0000 0.70800  0.71700  0.80510  Biso   1.000  H
  C163     1.0000 0.76400  0.65170  0.81820  Biso   1.000  C
  H121     1.0000 0.74260  0.63800  0.84290  Biso   1.000  H
  C164     1.0000 0.59320  0.47270  0.86520  Biso   1.000  C
  H122     1.0000 0.56470  0.48890  0.88270  Biso   1.000  H
  C165     1.0000 0.65930  0.49490  0.86520  Biso   1.000  C
  H123     1.0000 0.67410  0.52680  0.88110  Biso   1.000  H
  C166     1.0000 0.76520  0.54490  0.82350  Biso   1.000  C
  H124     1.0000 0.71290  0.56000  0.80880  Biso   1.000  H
  C167     1.0000 0.83040  0.57190  0.82450  Biso   1.000  C
  C168     1.0000 0.90940  0.54810  0.84870  Biso   1.000  C
  H125     1.0000 0.95390  0.56490  0.85000  Biso   1.000  H
  C169     1.0000 0.13280  0.45180  0.90210  Biso   1.000  C
  H126     1.0000 0.16250  0.45180  0.88000  Biso   1.000  H
  C170     1.0000 0.05650  0.47720  0.87260  Biso   1.000  C
  H127     1.0000 0.03690  0.49540  0.83230  Biso   1.000  H
  O38      1.0000 0.78360  0.79240  0.70520  Biso   1.000  O
  O39      1.0000 0.68220  0.78840  0.73020  Biso   1.000  O
  C171     1.0000 0.81570  0.62410  0.80480  Biso   1.000  C
  Co7      1.0000 0.36115  0.35362  0.80724  Biso   1.000  Co
  Co8      1.0000 0.39019  0.35529  0.05475  Biso   1.000  Co
  Co9      1.0000 0.24599  0.34036  0.87617  Biso   1.000  Co
  O40      1.0000 0.28850  0.39020  0.06050  Biso   1.000  O
  O41      1.0000 0.28080  0.38740  0.96190  Biso   1.000  O
  O42      1.0000 0.21060  0.39950  0.81050  Biso   1.000  O
  O43      1.0000 0.37510  0.34710  0.90520  Biso   1.000  O
  O44      1.0000 0.46490  0.33890  0.01730  Biso   1.000  O
  C172     1.0000 0.24940  0.39970  0.99680  Biso   1.000  C
  C173     1.0000 0.07180  0.45730  0.71170  Biso   1.000  C
  H128     1.0000 0.08650  0.45990  0.75750  Biso   1.000  H
  C174     1.0000 0.99690  0.47830  0.65720  Biso   1.000  C
  H129     1.0000 0.96090  0.49460  0.66720  Biso   1.000  H
  C175     1.0000 0.87140  0.54670  0.53730  Biso   1.000  C
  H130     1.0000 0.90560  0.56320  0.57950  Biso   1.000  H
  C176     1.0000 0.80110  0.56990  0.48240  Biso   1.000  C
  C177     1.0000 0.66930  0.49320  0.28160  Biso   1.000  C
  H131     1.0000 0.68570  0.52480  0.27940  Biso   1.000  H
  C178     1.0000 0.60820  0.47000  0.22240  Biso   1.000  C
  H132     1.0000 0.58220  0.48640  0.17990  Biso   1.000  H
  C179     1.0000 0.77730  0.62020  0.48860  Biso   1.000  C
  C180     1.0000 0.73660  0.65220  0.42920  Biso   1.000  C
  H133     1.0000 0.72510  0.64120  0.38650  Biso   1.000  H
  C181     1.0000 0.71480  0.69810  0.43460  Biso   1.000  C
  H134     1.0000 0.68810  0.71830  0.39560  Biso   1.000  H
  C182     1.0000 0.73240  0.71540  0.49910  Biso   1.000  C
  C183     1.0000 0.77080  0.68550  0.55560  Biso   1.000  C
  H135     1.0000 0.78130  0.69680  0.59790  Biso   1.000  H
  C184     1.0000 0.79440  0.63870  0.55140  Biso   1.000  C
  H136     1.0000 0.82230  0.61930  0.59120  Biso   1.000  H
  C185     1.0000 0.44730  0.33870  0.95660  Biso   1.000  C
  H137     1.0000 0.49140  0.33180  0.94970  Biso   1.000  H
  O45      1.0000 0.11890  0.33710  0.85000  Biso   1.000  O
  C186     1.0000 0.05780  0.33510  0.78810  Biso   1.000  C
  H138     1.0000 0.07750  0.33400  0.75850  Biso   1.000  H
  N5       1.0000 0.97250  0.33420  0.75200  Biso   1.000  N
  C187     1.0000 0.93400  0.35900  0.78400  Biso   1.000  C
  H139     1.0000 0.88430  0.34060  0.77550  Biso   1.000  H
  H140     1.0000 0.97540  0.36080  0.83390  Biso   1.000  H
  C188     1.0000 0.90500  0.41000  0.75400  Biso   1.000  C
  H141     1.0000 0.85420  0.40840  0.70750  Biso   1.000  H
  H142     1.0000 0.89320  0.42880  0.78320  Biso   1.000  H
  H143     1.0000 0.95070  0.42590  0.75230  Biso   1.000  H
  C189     1.0000 0.90700  0.34200  0.68000  Biso   1.000  C
  H144     1.0000 0.85910  0.31960  0.66660  Biso   1.000  H
  H145     1.0000 0.88510  0.37440  0.67360  Biso   1.000  H
  C190     1.0000 0.93600  0.33300  0.62900  Biso   1.000  C
  H146     1.0000 0.93990  0.29930  0.62330  Biso   1.000  H
  H147     1.0000 0.89510  0.34800  0.58500  Biso   1.000  H
  H148     1.0000 0.99180  0.34820  0.64830  Biso   1.000  H
  C191     1.0000 0.07590  0.30160  0.82600  Biso   1.000  C
  H149     1.0000 0.10310  0.27350  0.82480  Biso   1.000  H
  N6       1.0000 0.99350  0.29900  0.80000  Biso   1.000  N
  C192     1.0000 0.96400  0.32100  0.84100  Biso   1.000  C
  H150     1.0000 0.94990  0.29570  0.86230  Biso   1.000  H
  H151     1.0000 0.01070  0.34040  0.87780  Biso   1.000  H
  C193     1.0000 0.88500  0.35300  0.79600  Biso   1.000  C
  H152     1.0000 0.86940  0.35210  0.74810  Biso   1.000  H
  H153     1.0000 0.83810  0.34160  0.79820  Biso   1.000  H
  H154     1.0000 0.89880  0.38600  0.81250  Biso   1.000  H
  C194     1.0000 0.93600  0.25810  0.77200  Biso   1.000  C
  H155     1.0000 0.96720  0.22910  0.79780  Biso   1.000  H
  H156     1.0000 0.88840  0.26300  0.77740  Biso   1.000  H
  C195     1.0000 0.90200  0.25090  0.69450  Biso   1.000  C
  H157     1.0000 0.94730  0.23900  0.69000  Biso   1.000  H
  H158     1.0000 0.85520  0.22780  0.67460  Biso   1.000  H
  H159     1.0000 0.88110  0.28140  0.67040  Biso   1.000  H
  O46      1.0000 0.34230  0.28970  0.05100  Biso   1.000  O
  O47      1.0000 0.27370  0.27980  0.93540  Biso   1.000  O
  C196     1.0000 0.29680  0.26620  0.99590  Biso   1.000  C
  O48      1.0000 0.53650  0.86180  0.69780  Biso   1.000  O
  O49      1.0000 0.54350  0.92220  0.63910  Biso   1.000  O
  C197     1.0000 0.50800  0.90110  0.66680  Biso   1.000  C
  C198     1.0000 0.43210  0.92450  0.66180  Biso   1.000  C
  C199     1.0000 0.38590  0.90060  0.68290  Biso   1.000  C
  H160     1.0000 0.39980  0.86870  0.69840  Biso   1.000  H
  C200     1.0000 0.31780  0.92360  0.68150  Biso   1.000  C
  H161     1.0000 0.28710  0.90700  0.69660  Biso   1.000  H
  C201     1.0000 0.29560  0.97090  0.65790  Biso   1.000  C
  C202     1.0000 0.22390  0.99680  0.65650  Biso   1.000  C
  C203     1.0000 0.14660  0.97430  0.63240  Biso   1.000  C
  H162     1.0000 0.13870  0.94200  0.61790  Biso   1.000  H
  C204     1.0000 0.07780  0.00050  0.62960  Biso   1.000  C
  C205     1.0000 0.99200  0.97600  0.59700  Biso   1.000  C
  C206     1.0000 0.95750  0.95020  0.53450  Biso   1.000  C
  H163     1.0000 0.98760  0.94920  0.51260  Biso   1.000  H
  C207     1.0000 0.88050  0.92630  0.50510  Biso   1.000  C
  H164     1.0000 0.85850  0.90970  0.46330  Biso   1.000  H
  C208     1.0000 0.83400  0.92660  0.53710  Biso   1.000  C
  O50      1.0000 0.50910  0.85570  0.34120  Biso   1.000  O
  O51      1.0000 0.52500  0.92210  0.39870  Biso   1.000  O
  C209     1.0000 0.48710  0.89930  0.34200  Biso   1.000  C
  C210     1.0000 0.41650  0.92300  0.27680  Biso   1.000  C
  C211     1.0000 0.37680  0.89830  0.21480  Biso   1.000  C
  H165     1.0000 0.39090  0.86590  0.21410  Biso   1.000  H
  C212     1.0000 0.31340  0.92210  0.15080  Biso   1.000  C
  H166     1.0000 0.28740  0.90570  0.10830  Biso   1.000  H
  C213     1.0000 0.29190  0.96890  0.15320  Biso   1.000  C
  C214     1.0000 0.23380  0.99640  0.08630  Biso   1.000  C
  C215     1.0000 0.15880  0.97450  0.03050  Biso   1.000  C
  H167     1.0000 0.14380  0.94320  0.03540  Biso   1.000  H
  C216     1.0000 0.10720  0.99930  0.96830  Biso   1.000  C
  C217     1.0000 0.02680  0.97600  0.91170  Biso   1.000  C
  C218     1.0000 0.97100  0.95190  0.92330  Biso   1.000  C
  H168     1.0000 0.98540  0.95010  0.96910  Biso   1.000  H
  C219     1.0000 0.89540  0.93010  0.87240  Biso   1.000  C
  H169     1.0000 0.85920  0.91460  0.88290  Biso   1.000  H
  C220     1.0000 0.87540  0.93220  0.80390  Biso   1.000  C
  C221     1.0000 0.25050  0.04390  0.07830  Biso   1.000  C
  H170     1.0000 0.29880  0.05910  0.11560  Biso   1.000  H
  C222     1.0000 0.79420  0.90750  0.74710  Biso   1.000  C
  O52      1.0000 0.73800  0.89390  0.75900  Biso   1.000  O
  C223     1.0000 0.25290  0.27130  0.77010  Biso   1.000  C
  C224     1.0000 0.15070  0.14610  0.72950  Biso   1.000  C
  H171     1.0000 0.11480  0.12850  0.73840  Biso   1.000  H
  C225     1.0000 0.16980  0.19410  0.75070  Biso   1.000  C
  H172     1.0000 0.14470  0.20870  0.77220  Biso   1.000  H
  C226     1.0000 0.22480  0.22030  0.74070  Biso   1.000  C
  C227     1.0000 0.25670  0.19920  0.70420  Biso   1.000  C
  H173     1.0000 0.29200  0.21700  0.69490  Biso   1.000  H
  C228     1.0000 0.23600  0.15170  0.68180  Biso   1.000  C
  H174     1.0000 0.25740  0.13800  0.65710  Biso   1.000  H
  C229     1.0000 0.40680  0.97270  0.63480  Biso   1.000  C
  H175     1.0000 0.43530  0.98890  0.61730  Biso   1.000  H
  C230     1.0000 0.34070  0.99490  0.63480  Biso   1.000  C
  H176     1.0000 0.32590  0.02680  0.61890  Biso   1.000  H
  C231     1.0000 0.23480  0.04490  0.67650  Biso   1.000  C
  H177     1.0000 0.28710  0.06000  0.69120  Biso   1.000  H
  C232     1.0000 0.16960  0.07190  0.67550  Biso   1.000  C
  C233     1.0000 0.09060  0.04810  0.65130  Biso   1.000  C
  H178     1.0000 0.04610  0.06490  0.65000  Biso   1.000  H
  C234     1.0000 0.86720  0.95180  0.59790  Biso   1.000  C
  H179     1.0000 0.83750  0.95180  0.62000  Biso   1.000  H
  C235     1.0000 0.94350  0.97720  0.62740  Biso   1.000  C
  H180     1.0000 0.96310  0.99540  0.66770  Biso   1.000  H
  O53      1.0000 0.21640  0.29240  0.79480  Biso   1.000  O
  O54      1.0000 0.31780  0.28840  0.76980  Biso   1.000  O
  C236     1.0000 0.18430  0.12410  0.69520  Biso   1.000  C
  Co10     1.0000 0.63885  0.85362  0.69276  Biso   1.000  Co
  Co11     1.0000 0.60981  0.85529  0.44525  Biso   1.000  Co
  Co12     1.0000 0.75401  0.84036  0.62383  Biso   1.000  Co
  O55      1.0000 0.71150  0.89020  0.43950  Biso   1.000  O
  O56      1.0000 0.71920  0.88740  0.53810  Biso   1.000  O
  O57      1.0000 0.78940  0.89950  0.68950  Biso   1.000  O
  O58      1.0000 0.62490  0.84710  0.59480  Biso   1.000  O
  O59      1.0000 0.53510  0.83890  0.48270  Biso   1.000  O
  C237     1.0000 0.75060  0.89970  0.50320  Biso   1.000  C
  C238     1.0000 0.92820  0.95730  0.78830  Biso   1.000  C
  H181     1.0000 0.91350  0.95990  0.74250  Biso   1.000  H
  C239     1.0000 0.00310  0.97830  0.84280  Biso   1.000  C
  H182     1.0000 0.03910  0.99460  0.83280  Biso   1.000  H
  C240     1.0000 0.12860  0.04670  0.96270  Biso   1.000  C
  H183     1.0000 0.09440  0.06320  0.92050  Biso   1.000  H
  C241     1.0000 0.19890  0.06990  0.01760  Biso   1.000  C
  C242     1.0000 0.33070  0.99320  0.21840  Biso   1.000  C
  H184     1.0000 0.31430  0.02480  0.22060  Biso   1.000  H
  C243     1.0000 0.39180  0.97000  0.27760  Biso   1.000  C
  H185     1.0000 0.41780  0.98640  0.32010  Biso   1.000  H
  C244     1.0000 0.22270  0.12020  0.01140  Biso   1.000  C
  C245     1.0000 0.26340  0.15220  0.07080  Biso   1.000  C
  H186     1.0000 0.27490  0.14120  0.11350  Biso   1.000  H
  C246     1.0000 0.28520  0.19810  0.06540  Biso   1.000  C
  H187     1.0000 0.31190  0.21830  0.10440  Biso   1.000  H
  C247     1.0000 0.26760  0.21540  0.00090  Biso   1.000  C
  C248     1.0000 0.22920  0.18550  0.94440  Biso   1.000  C
  H188     1.0000 0.21870  0.19680  0.90210  Biso   1.000  H
  C249     1.0000 0.20560  0.13870  0.94860  Biso   1.000  C
  H189     1.0000 0.17770  0.11930  0.90880  Biso   1.000  H
  C250     1.0000 0.55270  0.83870  0.54340  Biso   1.000  C
  H190     1.0000 0.50860  0.83180  0.55030  Biso   1.000  H
  O60      1.0000 0.88110  0.83710  0.65000  Biso   1.000  O
  C251     1.0000 0.94220  0.83510  0.71190  Biso   1.000  C
  H191     1.0000 0.92250  0.83400  0.74150  Biso   1.000  H
  N7       1.0000 0.02750  0.83420  0.74800  Biso   1.000  N
  C252     1.0000 0.06600  0.85900  0.71600  Biso   1.000  C
  H192     1.0000 0.11570  0.84060  0.72450  Biso   1.000  H
  H193     1.0000 0.02460  0.86080  0.66610  Biso   1.000  H
  C253     1.0000 0.09500  0.91000  0.74600  Biso   1.000  C
  H194     1.0000 0.14580  0.90840  0.79250  Biso   1.000  H
  H195     1.0000 0.10680  0.92880  0.71680  Biso   1.000  H
  H196     1.0000 0.04930  0.92590  0.74770  Biso   1.000  H
  C254     1.0000 0.09300  0.84200  0.82000  Biso   1.000  C
  H197     1.0000 0.14090  0.81960  0.83340  Biso   1.000  H
  H198     1.0000 0.11490  0.87440  0.82640  Biso   1.000  H
  C255     1.0000 0.06400  0.83300  0.87100  Biso   1.000  C
  H199     1.0000 0.06010  0.79930  0.87670  Biso   1.000  H
  H200     1.0000 0.10490  0.84800  0.91500  Biso   1.000  H
  H201     1.0000 0.00820  0.84820  0.85170  Biso   1.000  H
  C256     1.0000 0.92410  0.80160  0.67400  Biso   1.000  C
  H202     1.0000 0.89690  0.77350  0.67520  Biso   1.000  H
  N8       1.0000 0.00650  0.79900  0.70000  Biso   1.000  N
  C257     1.0000 0.03600  0.82100  0.65900  Biso   1.000  C
  H203     1.0000 0.05010  0.79570  0.63770  Biso   1.000  H
  H204     1.0000 0.98930  0.84040  0.62220  Biso   1.000  H
  C258     1.0000 0.11500  0.85300  0.70400  Biso   1.000  C
  H205     1.0000 0.13060  0.85210  0.75190  Biso   1.000  H
  H206     1.0000 0.16190  0.84160  0.70180  Biso   1.000  H
  H207     1.0000 0.10120  0.88600  0.68750  Biso   1.000  H
  C259     1.0000 0.06400  0.75810  0.72800  Biso   1.000  C
  H208     1.0000 0.03280  0.72910  0.70220  Biso   1.000  H
  H209     1.0000 0.11160  0.76300  0.72260  Biso   1.000  H
  C260     1.0000 0.09800  0.75090  0.80550  Biso   1.000  C
  H210     1.0000 0.05270  0.73900  0.81000  Biso   1.000  H
  H211     1.0000 0.14480  0.72780  0.82540  Biso   1.000  H
  H212     1.0000 0.11890  0.78140  0.82960  Biso   1.000  H
