data_image0
_cell_length_a       7.5135
_cell_length_b       37.1568
_cell_length_c       11.1499
_cell_angle_alpha    90
_cell_angle_beta     98.647
_cell_angle_gamma    90

_symmetry_space_group_name_H-M    "P 1"
_symmetry_int_tables_number       1

loop_
  _symmetry_equiv_pos_as_xyz
  'x, y, z'

loop_
  _atom_site_label
  _atom_site_occupancy
  _atom_site_fract_x
  _atom_site_fract_y
  _atom_site_fract_z
  _atom_site_thermal_displace_type
  _atom_site_B_iso_or_equiv
  _atom_site_type_symbol
  O1       1.0000 0.83160  0.17503  0.57170  Biso   1.000  O
  O2       1.0000 0.29430  0.15392  0.38520  Biso   1.000  O
  O3       1.0000 0.25770  0.01999  0.06670  Biso   1.000  O
  C1       1.0000 0.73710  0.14701  0.62650  Biso   1.000  C
  H1       1.0000 0.76910  0.12350  0.59610  Biso   1.000  H
  H2       1.0000 0.60700  0.15080  0.60570  Biso   1.000  H
  H3       1.0000 0.77100  0.14780  0.71480  Biso   1.000  H
  C2       1.0000 0.36030  0.12410  0.35260  Biso   1.000  C
  H4       1.0000 0.34840  0.10550  0.41310  Biso   1.000  H
  H5       1.0000 0.48790  0.12750  0.34610  Biso   1.000  H
  H6       1.0000 0.29500  0.11670  0.27370  Biso   1.000  H
  Mn1      1.0000 0.06554  0.16588  0.47811  Biso   1.000  Mn
  C3       1.0000 0.93180  0.02683  0.41410  Biso   1.000  C
  C4       1.0000 0.90800  0.98992  0.38880  Biso   1.000  C
  H7       1.0000 0.84550  0.98270  0.31220  Biso   1.000  H
  N1       1.0000 0.67430  0.03395  0.12790  Biso   1.000  N
  C5       1.0000 0.02710  0.03587  0.52780  Biso   1.000  C
  H8       1.0000 0.04740  0.06050  0.54780  Biso   1.000  H
  N2       1.0000 0.92420  0.11976  0.38280  Biso   1.000  N
  N3       1.0000 0.94090  0.20219  0.33260  Biso   1.000  N
  N4       1.0000 0.18760  0.13076  0.62960  Biso   1.000  N
  C6       1.0000 0.75850  0.04473  0.21580  Biso   1.000  C
  N5       1.0000 0.46820  0.04597  0.87020  Biso   1.000  N
  C7       1.0000 0.43570  0.07517  0.84220  Biso   1.000  C
  C8       1.0000 0.49360  0.13956  0.89670  Biso   1.000  C
  C9       1.0000 0.58580  0.13107  0.01150  Biso   1.000  C
  H9       1.0000 0.59400  0.10670  0.03700  Biso   1.000  H
  C10      1.0000 0.65570  0.19399  0.05620  Biso   1.000  C
  C11      1.0000 0.89130  0.09062  0.35250  Biso   1.000  C
  C12      1.0000 0.66530  0.15754  0.08880  Biso   1.000  C
  H10      1.0000 0.72800  0.15080  0.16600  Biso   1.000  H
  C13      1.0000 0.85230  0.21237  0.24650  Biso   1.000  C
  C14      1.0000 0.28560  0.12077  0.71190  Biso   1.000  C
  C15      1.0000 0.56410  0.20236  0.94120  Biso   1.000  C
  H11      1.0000 0.55640  0.22680  0.91570  Biso   1.000  H
  N6       1.0000 0.70200  0.28715  0.07090  Biso   1.000  N
  C16      1.0000 0.48460  0.17611  0.86390  Biso   1.000  C
  H12      1.0000 0.42240  0.18290  0.78670  Biso   1.000  H
  C17      1.0000 0.72420  0.25829  0.10570  Biso   1.000  C
  C18      1.0000 0.86050  0.05448  0.32580  Biso   1.000  C
  C19      1.0000 0.40570  0.11170  0.81470  Biso   1.000  C
  C20      1.0000 0.74300  0.22192  0.13760  Biso   1.000  C
  C21      1.0000 0.23340  0.05150  0.09320  Biso   1.000  C
  C22      1.0000 0.10190  0.10890  0.07610  Biso   1.000  C
  H13      1.0000 0.17930  0.11180  0.15450  Biso   1.000  H
  H14      1.0000 0.97670  0.11390  0.08560  Biso   1.000  H
  H15      1.0000 0.14010  0.12580  0.01740  Biso   1.000  H
  N7       1.0000 0.11580  0.07400  0.03470  Biso   1.000  N
  H16      1.0000 0.30720  0.06060  0.16330  Biso   1.000  H
  C23      1.0000 0.01250  0.06300  0.93540  Biso   1.000  C
  H17      1.0000 0.88820  0.06070  0.95110  Biso   1.000  H
  H18      1.0000 0.05530  0.03960  0.91090  Biso   1.000  H
  H19      1.0000 0.01740  0.08050  0.87030  Biso   1.000  H
  O4       1.0000 0.39060  0.08106  0.37950  Biso   1.000  O
  C24      1.0000 0.41350  0.17180  0.33410  Biso   1.000  C
  H20      1.0000 0.37910  0.19730  0.32730  Biso   1.000  H
  H21      1.0000 0.41830  0.16200  0.25310  Biso   1.000  H
  H22      1.0000 0.53220  0.16960  0.38390  Biso   1.000  H
  C25      1.0000 0.46610  0.06500  0.47430  Biso   1.000  C
  H23      1.0000 0.51270  0.07920  0.54270  Biso   1.000  H
  C26      1.0000 0.41100  0.00640  0.38540  Biso   1.000  C
  H24      1.0000 0.33140  0.02020  0.32440  Biso   1.000  H
  H25      1.0000 0.34240  0.98700  0.41670  Biso   1.000  H
  H26      1.0000 0.50960  0.99610  0.34820  Biso   1.000  H
  N8       1.0000 0.48360  0.02980  0.48330  Biso   1.000  N
  C27      1.0000 0.57140  0.01410  0.59500  Biso   1.000  C
  H27      1.0000 0.59830  0.03300  0.65650  Biso   1.000  H
  H28      1.0000 0.68370  0.00250  0.58110  Biso   1.000  H
  H29      1.0000 0.49190  0.99610  0.62340  Biso   1.000  H
  O5       1.0000 0.97880  0.03490  0.90300  Biso   1.000  O
  C28      1.0000 0.92480  0.06780  0.85600  Biso   1.000  C
  H30      1.0000 0.86290  0.08080  0.91390  Biso   1.000  H
  H31      1.0000 0.84260  0.06450  0.77980  Biso   1.000  H
  C29      1.0000 0.25500  0.05090  0.14510  Biso   1.000  C
  H32      1.0000 0.37300  0.05370  0.19490  Biso   1.000  H
  H33      1.0000 0.16300  0.04740  0.19780  Biso   1.000  H
  H34      1.0000 0.22640  0.07250  0.09560  Biso   1.000  H
  H35      1.0000 0.03020  0.08150  0.84050  Biso   1.000  H
  O6       1.0000 0.66840  0.67503  0.92830  Biso   1.000  O
  O7       1.0000 0.20570  0.65392  0.11480  Biso   1.000  O
  O8       1.0000 0.24230  0.51999  0.43330  Biso   1.000  O
  C30      1.0000 0.76290  0.64701  0.87350  Biso   1.000  C
  H36      1.0000 0.73090  0.62350  0.90390  Biso   1.000  H
  H37      1.0000 0.89300  0.65080  0.89430  Biso   1.000  H
  H38      1.0000 0.72900  0.64780  0.78520  Biso   1.000  H
  C31      1.0000 0.13970  0.62410  0.14740  Biso   1.000  C
  H39      1.0000 0.15160  0.60550  0.08690  Biso   1.000  H
  H40      1.0000 0.01210  0.62750  0.15390  Biso   1.000  H
  H41      1.0000 0.20500  0.61670  0.22630  Biso   1.000  H
  Mn2      1.0000 0.43446  0.66588  0.02189  Biso   1.000  Mn
  C32      1.0000 0.56820  0.52683  0.08590  Biso   1.000  C
  C33      1.0000 0.59200  0.48992  0.11120  Biso   1.000  C
  H42      1.0000 0.65450  0.48270  0.18780  Biso   1.000  H
  N9       1.0000 0.82570  0.53395  0.37210  Biso   1.000  N
  C34      1.0000 0.47290  0.53587  0.97220  Biso   1.000  C
  H43      1.0000 0.45260  0.56050  0.95220  Biso   1.000  H
  N10      1.0000 0.57580  0.61976  0.11720  Biso   1.000  N
  N11      1.0000 0.55910  0.70219  0.16740  Biso   1.000  N
  N12      1.0000 0.31240  0.63076  0.87040  Biso   1.000  N
  C35      1.0000 0.74150  0.54473  0.28420  Biso   1.000  C
  N13      1.0000 0.03180  0.54597  0.62980  Biso   1.000  N
  C36      1.0000 0.06430  0.57517  0.65780  Biso   1.000  C
  C37      1.0000 0.00640  0.63956  0.60330  Biso   1.000  C
  C38      1.0000 0.91420  0.63107  0.48850  Biso   1.000  C
  H44      1.0000 0.90600  0.60670  0.46300  Biso   1.000  H
  C39      1.0000 0.84430  0.69399  0.44380  Biso   1.000  C
  C40      1.0000 0.60870  0.59062  0.14750  Biso   1.000  C
  C41      1.0000 0.83470  0.65754  0.41120  Biso   1.000  C
  H45      1.0000 0.77200  0.65080  0.33400  Biso   1.000  H
  C42      1.0000 0.64770  0.71237  0.25350  Biso   1.000  C
  C43      1.0000 0.21440  0.62077  0.78810  Biso   1.000  C
  C44      1.0000 0.93590  0.70236  0.55880  Biso   1.000  C
  H46      1.0000 0.94360  0.72680  0.58430  Biso   1.000  H
  N14      1.0000 0.79800  0.78715  0.42910  Biso   1.000  N
  C45      1.0000 0.01540  0.67611  0.63610  Biso   1.000  C
  H47      1.0000 0.07760  0.68290  0.71330  Biso   1.000  H
  C46      1.0000 0.77580  0.75829  0.39430  Biso   1.000  C
  C47      1.0000 0.63950  0.55448  0.17420  Biso   1.000  C
  C48      1.0000 0.09430  0.61170  0.68530  Biso   1.000  C
  C49      1.0000 0.75700  0.72192  0.36240  Biso   1.000  C
  C50      1.0000 0.26660  0.55150  0.40680  Biso   1.000  C
  C51      1.0000 0.39810  0.60890  0.42390  Biso   1.000  C
  H48      1.0000 0.32070  0.61180  0.34550  Biso   1.000  H
  H49      1.0000 0.52330  0.61390  0.41440  Biso   1.000  H
  H50      1.0000 0.35990  0.62580  0.48260  Biso   1.000  H
  N15      1.0000 0.38420  0.57400  0.46530  Biso   1.000  N
  H51      1.0000 0.19280  0.56060  0.33670  Biso   1.000  H
  C52      1.0000 0.48750  0.56300  0.56460  Biso   1.000  C
  H52      1.0000 0.61180  0.56070  0.54890  Biso   1.000  H
  H53      1.0000 0.44470  0.53960  0.58910  Biso   1.000  H
  H54      1.0000 0.48260  0.58050  0.62970  Biso   1.000  H
  O9       1.0000 0.10940  0.58106  0.12050  Biso   1.000  O
  C53      1.0000 0.08650  0.67180  0.16590  Biso   1.000  C
  H55      1.0000 0.12090  0.69730  0.17270  Biso   1.000  H
  H56      1.0000 0.08170  0.66200  0.24690  Biso   1.000  H
  H57      1.0000 0.96780  0.66960  0.11610  Biso   1.000  H
  C54      1.0000 0.03390  0.56500  0.02570  Biso   1.000  C
  H58      1.0000 0.98730  0.57920  0.95730  Biso   1.000  H
  C55      1.0000 0.08900  0.50640  0.11460  Biso   1.000  C
  H59      1.0000 0.16860  0.52020  0.17560  Biso   1.000  H
  H60      1.0000 0.15760  0.48700  0.08330  Biso   1.000  H
  H61      1.0000 0.99040  0.49610  0.15180  Biso   1.000  H
  N16      1.0000 0.01640  0.52980  0.01670  Biso   1.000  N
  C56      1.0000 0.92860  0.51410  0.90500  Biso   1.000  C
  H62      1.0000 0.90170  0.53300  0.84350  Biso   1.000  H
  H63      1.0000 0.81630  0.50250  0.91890  Biso   1.000  H
  H64      1.0000 0.00810  0.49610  0.87660  Biso   1.000  H
  O10      1.0000 0.52120  0.53490  0.59700  Biso   1.000  O
  C57      1.0000 0.57520  0.56780  0.64400  Biso   1.000  C
  H65      1.0000 0.63710  0.58080  0.58610  Biso   1.000  H
  H66      1.0000 0.65740  0.56450  0.72020  Biso   1.000  H
  C58      1.0000 0.24500  0.55090  0.35490  Biso   1.000  C
  H67      1.0000 0.12700  0.55370  0.30510  Biso   1.000  H
  H68      1.0000 0.33700  0.54740  0.30220  Biso   1.000  H
  H69      1.0000 0.27360  0.57250  0.40440  Biso   1.000  H
  H70      1.0000 0.46980  0.58150  0.65950  Biso   1.000  H
  O11      1.0000 0.16840  0.82497  0.42830  Biso   1.000  O
  O12      1.0000 0.70570  0.84608  0.61480  Biso   1.000  O
  O13      1.0000 0.74230  0.98001  0.93330  Biso   1.000  O
  C59      1.0000 0.26290  0.85299  0.37350  Biso   1.000  C
  H71      1.0000 0.23090  0.87650  0.40390  Biso   1.000  H
  H72      1.0000 0.39300  0.84920  0.39430  Biso   1.000  H
  H73      1.0000 0.22900  0.85220  0.28520  Biso   1.000  H
  C60      1.0000 0.63970  0.87590  0.64740  Biso   1.000  C
  H74      1.0000 0.65160  0.89450  0.58690  Biso   1.000  H
  H75      1.0000 0.51210  0.87250  0.65390  Biso   1.000  H
  H76      1.0000 0.70500  0.88330  0.72630  Biso   1.000  H
  Mn3      1.0000 0.93446  0.83412  0.52189  Biso   1.000  Mn
  C61      1.0000 0.06820  0.97317  0.58590  Biso   1.000  C
  C62      1.0000 0.09200  0.01008  0.61120  Biso   1.000  C
  H77      1.0000 0.15450  0.01730  0.68780  Biso   1.000  H
  N17      1.0000 0.32570  0.96605  0.87210  Biso   1.000  N
  C63      1.0000 0.97290  0.96413  0.47220  Biso   1.000  C
  H78      1.0000 0.95260  0.93950  0.45220  Biso   1.000  H
  N18      1.0000 0.07580  0.88024  0.61720  Biso   1.000  N
  N19      1.0000 0.05910  0.79781  0.66740  Biso   1.000  N
  N20      1.0000 0.81240  0.86924  0.37040  Biso   1.000  N
  C64      1.0000 0.24150  0.95527  0.78420  Biso   1.000  C
  N21      1.0000 0.53180  0.95403  0.12980  Biso   1.000  N
  C65      1.0000 0.56430  0.92483  0.15780  Biso   1.000  C
  C66      1.0000 0.50640  0.86044  0.10330  Biso   1.000  C
  C67      1.0000 0.41420  0.86893  0.98850  Biso   1.000  C
  H79      1.0000 0.40600  0.89330  0.96300  Biso   1.000  H
  C68      1.0000 0.34430  0.80601  0.94380  Biso   1.000  C
  C69      1.0000 0.10870  0.90938  0.64750  Biso   1.000  C
  C70      1.0000 0.33470  0.84246  0.91120  Biso   1.000  C
  H80      1.0000 0.27200  0.84920  0.83400  Biso   1.000  H
  C71      1.0000 0.14770  0.78763  0.75350  Biso   1.000  C
  C72      1.0000 0.71440  0.87923  0.28810  Biso   1.000  C
  C73      1.0000 0.43590  0.79764  0.05880  Biso   1.000  C
  H81      1.0000 0.44360  0.77320  0.08430  Biso   1.000  H
  N22      1.0000 0.29800  0.71285  0.92910  Biso   1.000  N
  C74      1.0000 0.51540  0.82389  0.13610  Biso   1.000  C
  H82      1.0000 0.57760  0.81710  0.21330  Biso   1.000  H
  C75      1.0000 0.27580  0.74171  0.89430  Biso   1.000  C
  C76      1.0000 0.13950  0.94552  0.67420  Biso   1.000  C
  C77      1.0000 0.59430  0.88830  0.18530  Biso   1.000  C
  C78      1.0000 0.25700  0.77808  0.86240  Biso   1.000  C
  C79      1.0000 0.76660  0.94850  0.90680  Biso   1.000  C
  C80      1.0000 0.89810  0.89110  0.92390  Biso   1.000  C
  H83      1.0000 0.82070  0.88820  0.84550  Biso   1.000  H
  H84      1.0000 0.02330  0.88610  0.91440  Biso   1.000  H
  H85      1.0000 0.85990  0.87420  0.98260  Biso   1.000  H
  N23      1.0000 0.88420  0.92600  0.96530  Biso   1.000  N
  H86      1.0000 0.69280  0.93940  0.83670  Biso   1.000  H
  C81      1.0000 0.98750  0.93700  0.06460  Biso   1.000  C
  H87      1.0000 0.11180  0.93930  0.04890  Biso   1.000  H
  H88      1.0000 0.94470  0.96040  0.08910  Biso   1.000  H
  H89      1.0000 0.98260  0.91950  0.12970  Biso   1.000  H
  O14      1.0000 0.60940  0.91894  0.62050  Biso   1.000  O
  C82      1.0000 0.58650  0.82820  0.66590  Biso   1.000  C
  H90      1.0000 0.62090  0.80270  0.67270  Biso   1.000  H
  H91      1.0000 0.58170  0.83800  0.74690  Biso   1.000  H
  H92      1.0000 0.46780  0.83040  0.61610  Biso   1.000  H
  C83      1.0000 0.53390  0.93500  0.52570  Biso   1.000  C
  H93      1.0000 0.48730  0.92080  0.45730  Biso   1.000  H
  C84      1.0000 0.58900  0.99360  0.61460  Biso   1.000  C
  H94      1.0000 0.66860  0.97980  0.67560  Biso   1.000  H
  H95      1.0000 0.65760  0.01300  0.58330  Biso   1.000  H
  H96      1.0000 0.49040  0.00390  0.65180  Biso   1.000  H
  N24      1.0000 0.51640  0.97020  0.51670  Biso   1.000  N
  C85      1.0000 0.42860  0.98590  0.40500  Biso   1.000  C
  H97      1.0000 0.40170  0.96700  0.34350  Biso   1.000  H
  H98      1.0000 0.31630  0.99750  0.41890  Biso   1.000  H
  H99      1.0000 0.50810  0.00390  0.37660  Biso   1.000  H
  O15      1.0000 0.02120  0.96510  0.09700  Biso   1.000  O
  C86      1.0000 0.07520  0.93220  0.14400  Biso   1.000  C
  H100     1.0000 0.13710  0.91920  0.08610  Biso   1.000  H
  H101     1.0000 0.15740  0.93550  0.22020  Biso   1.000  H
  C87      1.0000 0.74500  0.94910  0.85490  Biso   1.000  C
  H102     1.0000 0.62700  0.94630  0.80510  Biso   1.000  H
  H103     1.0000 0.83700  0.95260  0.80220  Biso   1.000  H
  H104     1.0000 0.77360  0.92750  0.90440  Biso   1.000  H
  H105     1.0000 0.96980  0.91850  0.15950  Biso   1.000  H
  O16      1.0000 0.33160  0.32497  0.07170  Biso   1.000  O
  O17      1.0000 0.79430  0.34608  0.88520  Biso   1.000  O
  O18      1.0000 0.75770  0.48001  0.56670  Biso   1.000  O
  C88      1.0000 0.23710  0.35299  0.12650  Biso   1.000  C
  H106     1.0000 0.26910  0.37650  0.09610  Biso   1.000  H
  H107     1.0000 0.10700  0.34920  0.10570  Biso   1.000  H
  H108     1.0000 0.27100  0.35220  0.21480  Biso   1.000  H
  C89      1.0000 0.86030  0.37590  0.85260  Biso   1.000  C
  H109     1.0000 0.84840  0.39450  0.91310  Biso   1.000  H
  H110     1.0000 0.98790  0.37250  0.84610  Biso   1.000  H
  H111     1.0000 0.79500  0.38330  0.77370  Biso   1.000  H
  Mn4      1.0000 0.56554  0.33412  0.97811  Biso   1.000  Mn
  C90      1.0000 0.43180  0.47317  0.91410  Biso   1.000  C
  C91      1.0000 0.40800  0.51008  0.88880  Biso   1.000  C
  H112     1.0000 0.34550  0.51730  0.81220  Biso   1.000  H
  N25      1.0000 0.17430  0.46605  0.62790  Biso   1.000  N
  C92      1.0000 0.52710  0.46413  0.02780  Biso   1.000  C
  H113     1.0000 0.54740  0.43950  0.04780  Biso   1.000  H
  N26      1.0000 0.42420  0.38024  0.88280  Biso   1.000  N
  N27      1.0000 0.44090  0.29781  0.83260  Biso   1.000  N
  N28      1.0000 0.68760  0.36924  0.12960  Biso   1.000  N
  C93      1.0000 0.25850  0.45527  0.71580  Biso   1.000  C
  N29      1.0000 0.96820  0.45403  0.37020  Biso   1.000  N
  C94      1.0000 0.93570  0.42483  0.34220  Biso   1.000  C
  C95      1.0000 0.99360  0.36044  0.39670  Biso   1.000  C
  C96      1.0000 0.08580  0.36893  0.51150  Biso   1.000  C
  H114     1.0000 0.09400  0.39330  0.53700  Biso   1.000  H
  C97      1.0000 0.15570  0.30601  0.55620  Biso   1.000  C
  C98      1.0000 0.39130  0.40938  0.85250  Biso   1.000  C
  C99      1.0000 0.16530  0.34246  0.58880  Biso   1.000  C
  H115     1.0000 0.22800  0.34920  0.66600  Biso   1.000  H
  C100     1.0000 0.35230  0.28763  0.74650  Biso   1.000  C
  C101     1.0000 0.78560  0.37923  0.21190  Biso   1.000  C
  C102     1.0000 0.06410  0.29764  0.44120  Biso   1.000  C
  H116     1.0000 0.05640  0.27320  0.41570  Biso   1.000  H
  N30      1.0000 0.20200  0.21285  0.57090  Biso   1.000  N
  C103     1.0000 0.98460  0.32389  0.36390  Biso   1.000  C
  H117     1.0000 0.92240  0.31710  0.28670  Biso   1.000  H
  C104     1.0000 0.22420  0.24171  0.60570  Biso   1.000  C
  C105     1.0000 0.36050  0.44552  0.82580  Biso   1.000  C
  C106     1.0000 0.90570  0.38830  0.31470  Biso   1.000  C
  C107     1.0000 0.24300  0.27808  0.63760  Biso   1.000  C
  C108     1.0000 0.73340  0.44850  0.59320  Biso   1.000  C
  C109     1.0000 0.60190  0.39110  0.57610  Biso   1.000  C
  H118     1.0000 0.67930  0.38820  0.65450  Biso   1.000  H
  H119     1.0000 0.47670  0.38610  0.58560  Biso   1.000  H
  H120     1.0000 0.64010  0.37420  0.51740  Biso   1.000  H
  N31      1.0000 0.61580  0.42600  0.53470  Biso   1.000  N
  H121     1.0000 0.80720  0.43940  0.66330  Biso   1.000  H
  C110     1.0000 0.51250  0.43700  0.43540  Biso   1.000  C
  H122     1.0000 0.38820  0.43930  0.45110  Biso   1.000  H
  H123     1.0000 0.55530  0.46040  0.41090  Biso   1.000  H
  H124     1.0000 0.51740  0.41950  0.37030  Biso   1.000  H
  O19      1.0000 0.89060  0.41894  0.87950  Biso   1.000  O
  C111     1.0000 0.91350  0.32820  0.83410  Biso   1.000  C
  H125     1.0000 0.87910  0.30270  0.82730  Biso   1.000  H
  H126     1.0000 0.91830  0.33800  0.75310  Biso   1.000  H
  H127     1.0000 0.03220  0.33040  0.88390  Biso   1.000  H
  C112     1.0000 0.96610  0.43500  0.97430  Biso   1.000  C
  H128     1.0000 0.01270  0.42080  0.04270  Biso   1.000  H
  C113     1.0000 0.91100  0.49360  0.88540  Biso   1.000  C
  H129     1.0000 0.83140  0.47980  0.82440  Biso   1.000  H
  H130     1.0000 0.84240  0.51300  0.91670  Biso   1.000  H
  H131     1.0000 0.00960  0.50390  0.84820  Biso   1.000  H
  N32      1.0000 0.98360  0.47020  0.98330  Biso   1.000  N
  C114     1.0000 0.07140  0.48590  0.09500  Biso   1.000  C
  H132     1.0000 0.09830  0.46700  0.15650  Biso   1.000  H
  H133     1.0000 0.18370  0.49750  0.08110  Biso   1.000  H
  H134     1.0000 0.99190  0.50390  0.12340  Biso   1.000  H
  O20      1.0000 0.47880  0.46510  0.40300  Biso   1.000  O
  C115     1.0000 0.42480  0.43220  0.35600  Biso   1.000  C
  H135     1.0000 0.36290  0.41920  0.41390  Biso   1.000  H
  H136     1.0000 0.34260  0.43550  0.27980  Biso   1.000  H
  C116     1.0000 0.75500  0.44910  0.64510  Biso   1.000  C
  H137     1.0000 0.87300  0.44630  0.69490  Biso   1.000  H
  H138     1.0000 0.66300  0.45260  0.69780  Biso   1.000  H
  H139     1.0000 0.72640  0.42750  0.59560  Biso   1.000  H
  H140     1.0000 0.53020  0.41850  0.34050  Biso   1.000  H
  Mn5      1.0000 0.50000  0.00000  0.00000  Biso   1.000  Mn
  Mn6      1.0000 0.00000  0.50000  0.50000  Biso   1.000  Mn
