data_image0
_cell_length_a       8.945
_cell_length_b       14.856
_cell_length_c       19.861
_cell_angle_alpha    91.644
_cell_angle_beta     101.974
_cell_angle_gamma    93.755

_symmetry_space_group_name_H-M    "P 1"
_symmetry_int_tables_number       1

loop_
  _symmetry_equiv_pos_as_xyz
  'x, y, z'

loop_
  _atom_site_label
  _atom_site_occupancy
  _atom_site_fract_x
  _atom_site_fract_y
  _atom_site_fract_z
  _atom_site_thermal_displace_type
  _atom_site_B_iso_or_equiv
  _atom_site_type_symbol
  Cd1      1.0000 0.95981  0.02052  0.27183  Biso   1.000  Cd
  N1       1.0000 0.78450  0.96800  0.17891  Biso   1.000  N
  N2       1.0000 0.65800  0.89940  0.08237  Biso   1.000  N
  N3       1.0000 0.21110  0.54700  0.96044  Biso   1.000  N
  N4       1.0000 0.40420  0.63780  0.94616  Biso   1.000  N
  N5       1.0000 0.85090  0.91339  0.77785  Biso   1.000  N
  N6       1.0000 0.69710  0.86210  0.84331  Biso   1.000  N
  N7       1.0000 0.79490  0.91760  0.44610  Biso   1.000  N
  O1       1.0000 0.83980  0.52699  0.89670  Biso   1.000  O
  O2       1.0000 0.91490  0.67361  0.89670  Biso   1.000  O
  O3       1.0000 0.98110  0.13819  0.35219  Biso   1.000  O
  O4       1.0000 0.79220  0.15518  0.26364  Biso   1.000  O
  O5       1.0000 0.14900  0.87443  0.23842  Biso   1.000  O
  O6       1.0000 0.13360  0.94224  0.33649  Biso   1.000  O
  O7       1.0000 0.78340  0.94600  0.33410  Biso   1.000  O
  O8       1.0000 0.04570  0.34899  0.96595  Biso   1.000  O
  H1       1.0000 0.95880  0.32410  0.93220  Biso   1.000  H
  H2       1.0000 0.06020  0.31230  0.00550  Biso   1.000  H
  C1       1.0000 0.68310  0.88060  0.96325  Biso   1.000  C
  H3       1.0000 0.74280  0.93490  0.96700  Biso   1.000  H
  C2       1.0000 0.62650  0.84820  0.01876  Biso   1.000  C
  C3       1.0000 0.53660  0.76780  0.01364  Biso   1.000  C
  H4       1.0000 0.50020  0.74690  0.05140  Biso   1.000  H
  C4       1.0000 0.50190  0.71890  0.95103  Biso   1.000  C
  C5       1.0000 0.55650  0.74860  0.89493  Biso   1.000  C
  H5       1.0000 0.53300  0.71540  0.85320  Biso   1.000  H
  C6       1.0000 0.64720  0.82900  0.90227  Biso   1.000  C
  C7       1.0000 0.79670  0.92940  0.12041  Biso   1.000  C
  H6       1.0000 0.88900  0.92320  0.10680  Biso   1.000  H
  C8       1.0000 0.63010  0.96320  0.17870  Biso   1.000  C
  H7       1.0000 0.58720  0.98540  0.21410  Biso   1.000  H
  C9       1.0000 0.55030  0.92170  0.11980  Biso   1.000  C
  H8       1.0000 0.44450  0.91030  0.10690  Biso   1.000  H
  C10      1.0000 0.27680  0.62860  0.97112  Biso   1.000  C
  H9       1.0000 0.23920  0.67520  0.99360  Biso   1.000  H
  C11      1.0000 0.30250  0.50080  0.92650  Biso   1.000  C
  H10      1.0000 0.28520  0.44020  0.91220  Biso   1.000  H
  C12      1.0000 0.42110  0.55590  0.91690  Biso   1.000  C
  H11      1.0000 0.49880  0.54120  0.89470  Biso   1.000  H
  C13      1.0000 0.84190  0.89250  0.84038  Biso   1.000  C
  H12      1.0000 0.92410  0.89780  0.87800  Biso   1.000  H
  C14      1.0000 0.70550  0.89600  0.73832  Biso   1.000  C
  H13      1.0000 0.67750  0.90510  0.69140  Biso   1.000  H
  C15      1.0000 0.60980  0.86410  0.77742  Biso   1.000  C
  H14      1.0000 0.50600  0.84680  0.76300  Biso   1.000  H
  C16      1.0000 0.85780  0.60040  0.86687  Biso   1.000  C
  C17      1.0000 0.81090  0.59610  0.78944  Biso   1.000  C
  C18      1.0000 0.75490  0.51510  0.75288  Biso   1.000  C
  H15      1.0000 0.73890  0.46340  0.77660  Biso   1.000  H
  C19      1.0000 0.72320  0.51110  0.68189  Biso   1.000  C
  H16      1.0000 0.68750  0.45640  0.65830  Biso   1.000  H
  C20      1.0000 0.74370  0.58750  0.64482  Biso   1.000  C
  C21      1.0000 0.79540  0.66880  0.68124  Biso   1.000  C
  H17      1.0000 0.80740  0.72090  0.65750  Biso   1.000  H
  C22      1.0000 0.82910  0.67290  0.75232  Biso   1.000  C
  H18      1.0000 0.86450  0.72770  0.77580  Biso   1.000  H
  C23      1.0000 0.70870  0.58080  0.56813  Biso   1.000  C
  C24      1.0000 0.74650  0.50570  0.53353  Biso   1.000  C
  H19      1.0000 0.79640  0.46060  0.55880  Biso   1.000  H
  C25      1.0000 0.71140  0.49660  0.46210  Biso   1.000  C
  C26      1.0000 0.63630  0.56470  0.42521  Biso   1.000  C
  H20      1.0000 0.61480  0.56010  0.37730  Biso   1.000  H
  C27      1.0000 0.59240  0.63950  0.45837  Biso   1.000  C
  C28      1.0000 0.63250  0.64760  0.53003  Biso   1.000  C
  H21      1.0000 0.60800  0.69840  0.55280  Biso   1.000  H
  C29      1.0000 0.75170  0.41520  0.42684  Biso   1.000  C
  C30      1.0000 0.65710  0.37780  0.36625  Biso   1.000  C
  H22      1.0000 0.56610  0.40360  0.34830  Biso   1.000  H
  C31      1.0000 0.69650  0.30340  0.33269  Biso   1.000  C
  H23      1.0000 0.63290  0.28090  0.29170  Biso   1.000  H
  C32      1.0000 0.82850  0.26140  0.35869  Biso   1.000  C
  C33      1.0000 0.92260  0.29730  0.41961  Biso   1.000  C
  H24      1.0000 0.01170  0.27000  0.43830  Biso   1.000  H
  C34      1.0000 0.88480  0.37320  0.45260  Biso   1.000  C
  H25      1.0000 0.94990  0.39660  0.49290  Biso   1.000  H
  C35      1.0000 0.87020  0.17920  0.32210  Biso   1.000  C
  C36      1.0000 0.49630  0.70650  0.41882  Biso   1.000  C
  C37      1.0000 0.49790  0.72100  0.35010  Biso   1.000  C
  H26      1.0000 0.56550  0.69130  0.32900  Biso   1.000  H
  C38      1.0000 0.40060  0.77910  0.31226  Biso   1.000  C
  H27      1.0000 0.40290  0.78690  0.26620  Biso   1.000  H
  C39      1.0000 0.30030  0.82560  0.34222  Biso   1.000  C
  C40      1.0000 0.29990  0.81190  0.41080  Biso   1.000  C
  H28      1.0000 0.23460  0.84300  0.43220  Biso   1.000  H
  C41      1.0000 0.39470  0.75290  0.44803  Biso   1.000  C
  H29      1.0000 0.39010  0.74410  0.49380  Biso   1.000  H
  C42      1.0000 0.18630  0.88500  0.30190  Biso   1.000  C
  C43      1.0000 0.73960  0.96510  0.38770  Biso   1.000  C
  C44      1.0000 0.62780  0.03190  0.39800  Biso   1.000  C
  H30      1.0000 0.54340  0.00160  0.41320  Biso   1.000  H
  H31      1.0000 0.59070  0.05970  0.35530  Biso   1.000  H
  H32      1.0000 0.67740  0.07730  0.43210  Biso   1.000  H
  C45      1.0000 0.73940  0.93120  0.50940  Biso   1.000  C
  H33      1.0000 0.71910  0.99340  0.51480  Biso   1.000  H
  H34      1.0000 0.81560  0.91550  0.54800  Biso   1.000  H
  H35      1.0000 0.64680  0.89360  0.50720  Biso   1.000  H
  C46      1.0000 0.89660  0.84730  0.43440  Biso   1.000  C
  H36      1.0000 0.85050  0.78910  0.44140  Biso   1.000  H
  H37      1.0000 0.99340  0.85770  0.46620  Biso   1.000  H
  H38      1.0000 0.91230  0.84920  0.38810  Biso   1.000  H
  C47      1.0000 0.79600  0.92130  0.39480  Biso   1.000  C
  N8       1.0000 0.73340  0.95780  0.43520  Biso   1.000  N
  Cd2      1.0000 0.04019  0.97948  0.72817  Biso   1.000  Cd
  N9       1.0000 0.21550  0.03200  0.82109  Biso   1.000  N
  N10      1.0000 0.34200  0.10060  0.91763  Biso   1.000  N
  N11      1.0000 0.78890  0.45300  0.03956  Biso   1.000  N
  N12      1.0000 0.59580  0.36220  0.05384  Biso   1.000  N
  N13      1.0000 0.14910  0.08661  0.22215  Biso   1.000  N
  N14      1.0000 0.30290  0.13790  0.15669  Biso   1.000  N
  N15      1.0000 0.20510  0.08240  0.55390  Biso   1.000  N
  O9       1.0000 0.16020  0.47301  0.10330  Biso   1.000  O
  O10      1.0000 0.08510  0.32639  0.10330  Biso   1.000  O
  O11      1.0000 0.01890  0.86181  0.64781  Biso   1.000  O
  O12      1.0000 0.20780  0.84482  0.73636  Biso   1.000  O
  O13      1.0000 0.85100  0.12557  0.76158  Biso   1.000  O
  O14      1.0000 0.86640  0.05776  0.66351  Biso   1.000  O
  O15      1.0000 0.21660  0.05400  0.66590  Biso   1.000  O
  O16      1.0000 0.95430  0.65101  0.03405  Biso   1.000  O
  H39      1.0000 0.04120  0.67590  0.06780  Biso   1.000  H
  H40      1.0000 0.93980  0.68770  0.99450  Biso   1.000  H
  C48      1.0000 0.31690  0.11940  0.03675  Biso   1.000  C
  H41      1.0000 0.25720  0.06510  0.03300  Biso   1.000  H
  C49      1.0000 0.37350  0.15180  0.98124  Biso   1.000  C
  C50      1.0000 0.46340  0.23220  0.98636  Biso   1.000  C
  H42      1.0000 0.49980  0.25310  0.94860  Biso   1.000  H
  C51      1.0000 0.49810  0.28110  0.04897  Biso   1.000  C
  C52      1.0000 0.44350  0.25140  0.10507  Biso   1.000  C
  H43      1.0000 0.46700  0.28460  0.14680  Biso   1.000  H
  C53      1.0000 0.35280  0.17100  0.09773  Biso   1.000  C
  C54      1.0000 0.20330  0.07060  0.87959  Biso   1.000  C
  H44      1.0000 0.11100  0.07680  0.89320  Biso   1.000  H
  C55      1.0000 0.36990  0.03680  0.82130  Biso   1.000  C
  H45      1.0000 0.41280  0.01460  0.78590  Biso   1.000  H
  C56      1.0000 0.44970  0.07830  0.88020  Biso   1.000  C
  H46      1.0000 0.55550  0.08970  0.89310  Biso   1.000  H
  C57      1.0000 0.72320  0.37140  0.02888  Biso   1.000  C
  H47      1.0000 0.76080  0.32480  0.00640  Biso   1.000  H
  C58      1.0000 0.69750  0.49920  0.07350  Biso   1.000  C
  H48      1.0000 0.71480  0.55980  0.08780  Biso   1.000  H
  C59      1.0000 0.57890  0.44410  0.08310  Biso   1.000  C
  H49      1.0000 0.50120  0.45880  0.10530  Biso   1.000  H
  C60      1.0000 0.15810  0.10750  0.15962  Biso   1.000  C
  H50      1.0000 0.07590  0.10220  0.12200  Biso   1.000  H
  C61      1.0000 0.29450  0.10400  0.26168  Biso   1.000  C
  H51      1.0000 0.32250  0.09490  0.30860  Biso   1.000  H
  C62      1.0000 0.39020  0.13590  0.22258  Biso   1.000  C
  H52      1.0000 0.49400  0.15320  0.23700  Biso   1.000  H
  C63      1.0000 0.14220  0.39960  0.13313  Biso   1.000  C
  C64      1.0000 0.18910  0.40390  0.21056  Biso   1.000  C
  C65      1.0000 0.24510  0.48490  0.24712  Biso   1.000  C
  H53      1.0000 0.26110  0.53660  0.22340  Biso   1.000  H
  C66      1.0000 0.27680  0.48890  0.31811  Biso   1.000  C
  H54      1.0000 0.31250  0.54360  0.34170  Biso   1.000  H
  C67      1.0000 0.25630  0.41250  0.35518  Biso   1.000  C
  C68      1.0000 0.20460  0.33120  0.31876  Biso   1.000  C
  H55      1.0000 0.19260  0.27910  0.34250  Biso   1.000  H
  C69      1.0000 0.17090  0.32710  0.24768  Biso   1.000  C
  H56      1.0000 0.13550  0.27230  0.22420  Biso   1.000  H
  C70      1.0000 0.29130  0.41920  0.43187  Biso   1.000  C
  C71      1.0000 0.25350  0.49430  0.46647  Biso   1.000  C
  H57      1.0000 0.20360  0.53940  0.44120  Biso   1.000  H
  C72      1.0000 0.28860  0.50340  0.53790  Biso   1.000  C
  C73      1.0000 0.36370  0.43530  0.57479  Biso   1.000  C
  H58      1.0000 0.38520  0.43990  0.62270  Biso   1.000  H
  C74      1.0000 0.40760  0.36050  0.54163  Biso   1.000  C
  C75      1.0000 0.36750  0.35240  0.46997  Biso   1.000  C
  H59      1.0000 0.39200  0.30160  0.44720  Biso   1.000  H
  C76      1.0000 0.24830  0.58480  0.57316  Biso   1.000  C
  C77      1.0000 0.34290  0.62220  0.63375  Biso   1.000  C
  H60      1.0000 0.43390  0.59640  0.65170  Biso   1.000  H
  C78      1.0000 0.30350  0.69660  0.66731  Biso   1.000  C
  H61      1.0000 0.36710  0.71910  0.70830  Biso   1.000  H
  C79      1.0000 0.17150  0.73860  0.64131  Biso   1.000  C
  C80      1.0000 0.07740  0.70270  0.58039  Biso   1.000  C
  H62      1.0000 0.98830  0.73000  0.56170  Biso   1.000  H
  C81      1.0000 0.11520  0.62680  0.54740  Biso   1.000  C
  H63      1.0000 0.05010  0.60340  0.50710  Biso   1.000  H
  C82      1.0000 0.12980  0.82080  0.67790  Biso   1.000  C
  C83      1.0000 0.50370  0.29350  0.58118  Biso   1.000  C
  C84      1.0000 0.50210  0.27900  0.64990  Biso   1.000  C
  H64      1.0000 0.43450  0.30870  0.67100  Biso   1.000  H
  C85      1.0000 0.59940  0.22090  0.68774  Biso   1.000  C
  H65      1.0000 0.59710  0.21310  0.73380  Biso   1.000  H
  C86      1.0000 0.69970  0.17440  0.65778  Biso   1.000  C
  C87      1.0000 0.70010  0.18810  0.58920  Biso   1.000  C
  H66      1.0000 0.76540  0.15700  0.56780  Biso   1.000  H
  C88      1.0000 0.60530  0.24710  0.55197  Biso   1.000  C
  H67      1.0000 0.60990  0.25590  0.50620  Biso   1.000  H
  C89      1.0000 0.81370  0.11500  0.69810  Biso   1.000  C
  C90      1.0000 0.26040  0.03490  0.61230  Biso   1.000  C
  C91      1.0000 0.37220  0.96810  0.60200  Biso   1.000  C
  H68      1.0000 0.45660  0.99840  0.58680  Biso   1.000  H
  H69      1.0000 0.40930  0.94030  0.64470  Biso   1.000  H
  H70      1.0000 0.32260  0.92270  0.56790  Biso   1.000  H
  C92      1.0000 0.26060  0.06880  0.49060  Biso   1.000  C
  H71      1.0000 0.28090  0.00660  0.48520  Biso   1.000  H
  H72      1.0000 0.18440  0.08450  0.45200  Biso   1.000  H
  H73      1.0000 0.35320  0.10640  0.49280  Biso   1.000  H
  C93      1.0000 0.10340  0.15270  0.56560  Biso   1.000  C
  H74      1.0000 0.14950  0.21090  0.55860  Biso   1.000  H
  H75      1.0000 0.00660  0.14230  0.53380  Biso   1.000  H
  H76      1.0000 0.08770  0.15080  0.61190  Biso   1.000  H
  C94      1.0000 0.20400  0.07870  0.60520  Biso   1.000  C
  N16      1.0000 0.26660  0.04220  0.56480  Biso   1.000  N
  Cd3      1.0000 0.00000  0.50000  0.00000  Biso   1.000  Cd
