data_image0
_cell_length_a       7.199
_cell_length_b       7.569
_cell_length_c       9.541
_cell_angle_alpha    90
_cell_angle_beta     100.3
_cell_angle_gamma    90

_symmetry_space_group_name_H-M    P 1
_symmetry_int_tables_number       1

loop_
  _symmetry_equiv_pos_as_xyz
  'x, y, z'

loop_
  _atom_site_label
  _atom_site_occupancy
  _atom_site_fract_x
  _atom_site_fract_y
  _atom_site_fract_z
  _atom_site_thermal_displace_type
  _atom_site_B_iso_or_equiv
  _atom_site_type_symbol
  Cd1      1.0000 0.00000  0.00000  0.00000  Biso   1.000  Cd
  Ni1      1.0000 0.50000  0.50000  0.00000  Biso   1.000  Ni
  H1       1.0000 0.00814  0.11610  0.28422  Biso   1.000  H
  H2       1.0000 0.66997  0.11610  0.20155  Biso   1.000  H
  H3       1.0000 0.79100  0.11610  0.45835  Biso   1.000  H
  H4       1.0000 0.44535  0.11610  0.37177  Biso   1.000  H
  H5       1.0000 0.99186  0.11610  0.71578  Biso   1.000  H
  H6       1.0000 0.33003  0.11610  0.79845  Biso   1.000  H
  H7       1.0000 0.20900  0.11610  0.54165  Biso   1.000  H
  H8       1.0000 0.55465  0.11610  0.62823  Biso   1.000  H
  H9       1.0000 0.99186  0.88390  0.71578  Biso   1.000  H
  H10      1.0000 0.33003  0.88390  0.79845  Biso   1.000  H
  H11      1.0000 0.20900  0.88390  0.54165  Biso   1.000  H
  H12      1.0000 0.55465  0.88390  0.62823  Biso   1.000  H
  H13      1.0000 0.00814  0.88390  0.28422  Biso   1.000  H
  H14      1.0000 0.66997  0.88390  0.20155  Biso   1.000  H
  H15      1.0000 0.79100  0.88390  0.45835  Biso   1.000  H
  H16      1.0000 0.44535  0.88390  0.37177  Biso   1.000  H
  C1       1.0000 0.66500  0.67320  0.95820  Biso   1.000  C
  C2       1.0000 0.33500  0.67320  0.04180  Biso   1.000  C
  C3       1.0000 0.33500  0.32680  0.04180  Biso   1.000  C
  C4       1.0000 0.66500  0.32680  0.95820  Biso   1.000  C
  C5       1.0000 0.74050  0.00000  0.25230  Biso   1.000  C
  C6       1.0000 0.72140  0.00000  0.40680  Biso   1.000  C
  C7       1.0000 0.51400  0.00000  0.42420  Biso   1.000  C
  C8       1.0000 0.25950  0.00000  0.74770  Biso   1.000  C
  C9       1.0000 0.27860  0.00000  0.59320  Biso   1.000  C
  C10      1.0000 0.48600  0.00000  0.57580  Biso   1.000  C
  N1       1.0000 0.76870  0.77890  0.93640  Biso   1.000  N
  N2       1.0000 0.23130  0.77890  0.06360  Biso   1.000  N
  N3       1.0000 0.23130  0.22110  0.06360  Biso   1.000  N
  N4       1.0000 0.76870  0.22110  0.93640  Biso   1.000  N
  N5       1.0000 0.94060  0.00000  0.23080  Biso   1.000  N
  N6       1.0000 0.05940  0.00000  0.76920  Biso   1.000  N
