data_image0
_cell_length_a       7.4474
_cell_length_b       7.4474
_cell_length_c       13.05
_cell_angle_alpha    90
_cell_angle_beta     90
_cell_angle_gamma    90

_symmetry_space_group_name_H-M    P 1
_symmetry_int_tables_number       1

loop_
  _symmetry_equiv_pos_as_xyz
  'x, y, z'

loop_
  _atom_site_label
  _atom_site_occupancy
  _atom_site_fract_x
  _atom_site_fract_y
  _atom_site_fract_z
  _atom_site_thermal_displace_type
  _atom_site_B_iso_or_equiv
  _atom_site_type_symbol
  Zn1      1.0000 0.00000  0.00000  0.75000  Biso   1.000  Zn
  Zn2      1.0000 0.00000  0.00000  0.25000  Biso   1.000  Zn
  Ni1      1.0000 0.50000  0.00000  0.00000  Biso   1.000  Ni
  Ni2      1.0000 0.00000  0.50000  0.50000  Biso   1.000  Ni
  C1       1.0000 0.67720  0.00000  0.89998  Biso   1.000  C
  C2       1.0000 0.32280  0.00000  0.89998  Biso   1.000  C
  C3       1.0000 0.00000  0.67720  0.39998  Biso   1.000  C
  C4       1.0000 0.00000  0.32280  0.39998  Biso   1.000  C
  C5       1.0000 0.32280  0.00000  0.10002  Biso   1.000  C
  C6       1.0000 0.67720  0.00000  0.10002  Biso   1.000  C
  C7       1.0000 0.00000  0.67720  0.60002  Biso   1.000  C
  C8       1.0000 0.00000  0.32280  0.60002  Biso   1.000  C
  N1       1.0000 0.78880  0.00000  0.83985  Biso   1.000  N
  N2       1.0000 0.21120  0.00000  0.83985  Biso   1.000  N
  N3       1.0000 0.00000  0.78880  0.33985  Biso   1.000  N
  N4       1.0000 0.00000  0.21120  0.33985  Biso   1.000  N
  N5       1.0000 0.21120  0.00000  0.16015  Biso   1.000  N
  N6       1.0000 0.78880  0.00000  0.16015  Biso   1.000  N
  N7       1.0000 0.00000  0.78880  0.66015  Biso   1.000  N
  N8       1.0000 0.00000  0.21120  0.66015  Biso   1.000  N
