data_image0
_cell_length_a       6.3805
_cell_length_b       10.056
_cell_length_c       11.2429
_cell_angle_alpha    116.565
_cell_angle_beta     96.3543
_cell_angle_gamma    90

_symmetry_space_group_name_H-M    P 1
_symmetry_int_tables_number       1

loop_
  _symmetry_equiv_pos_as_xyz
  'x, y, z'

loop_
  _atom_site_label
  _atom_site_occupancy
  _atom_site_fract_x
  _atom_site_fract_y
  _atom_site_fract_z
  _atom_site_thermal_displace_type
  _atom_site_B_iso_or_equiv
  _atom_site_type_symbol
  Ni1      1.0000 0.00000  0.65028  0.00000  Biso   1.000  Ni
  Ni2      1.0000 0.00000  0.34972  0.00000  Biso   1.000  Ni
  Ni3      1.0000 0.50000  0.50000  0.00000  Biso   1.000  Ni
  H1       1.0000 0.57590  0.62400  0.65400  Biso   1.000  H
  H2       1.0000 0.41390  0.62060  0.61900  Biso   1.000  H
  H3       1.0000 0.25090  0.56500  0.66040  Biso   1.000  H
  H4       1.0000 0.86030  0.49250  0.56340  Biso   1.000  H
  H5       1.0000 0.68740  0.59700  0.57060  Biso   1.000  H
  H6       1.0000 0.42410  0.97000  0.34600  Biso   1.000  H
  H7       1.0000 0.58610  0.00160  0.38100  Biso   1.000  H
  H8       1.0000 0.74910  0.90460  0.33960  Biso   1.000  H
  H9       1.0000 0.13970  0.92910  0.43660  Biso   1.000  H
  H10      1.0000 0.31260  0.02640  0.42940  Biso   1.000  H
  H11      1.0000 0.42410  0.37600  0.34600  Biso   1.000  H
  H12      1.0000 0.58610  0.37940  0.38100  Biso   1.000  H
  H13      1.0000 0.74910  0.43500  0.33960  Biso   1.000  H
  H14      1.0000 0.13970  0.50750  0.43660  Biso   1.000  H
  H15      1.0000 0.31260  0.40300  0.42940  Biso   1.000  H
  H16      1.0000 0.57590  0.03000  0.65400  Biso   1.000  H
  H17      1.0000 0.41390  0.99840  0.61900  Biso   1.000  H
  H18      1.0000 0.25090  0.09540  0.66040  Biso   1.000  H
  H19      1.0000 0.86030  0.07090  0.56340  Biso   1.000  H
  H20      1.0000 0.68740  0.97360  0.57060  Biso   1.000  H
  H21      1.0000 0.84270  0.57650  0.15300  Biso   1.000  H
  H22      1.0000 0.15730  0.42350  0.84700  Biso   1.000  H
  C1       1.0000 0.57030  0.52580  0.63480  Biso   1.000  C
  C2       1.0000 0.35000  0.51140  0.59220  Biso   1.000  C
  C3       1.0000 0.72520  0.49610  0.54280  Biso   1.000  C
  C4       1.0000 0.64990  0.55990  0.77720  Biso   1.000  C
  C5       1.0000 0.42970  0.89100  0.36520  Biso   1.000  C
  C6       1.0000 0.65000  0.91920  0.40780  Biso   1.000  C
  C7       1.0000 0.27480  0.95330  0.45720  Biso   1.000  C
  C8       1.0000 0.35010  0.78270  0.22280  Biso   1.000  C
  C9       1.0000 0.42970  0.47420  0.36520  Biso   1.000  C
  C10      1.0000 0.65000  0.48860  0.40780  Biso   1.000  C
  C11      1.0000 0.27480  0.50390  0.45720  Biso   1.000  C
  C12      1.0000 0.35010  0.44010  0.22280  Biso   1.000  C
  C13      1.0000 0.57030  0.10900  0.63480  Biso   1.000  C
  C14      1.0000 0.35000  0.08080  0.59220  Biso   1.000  C
  C15      1.0000 0.72520  0.04670  0.54280  Biso   1.000  C
  C16      1.0000 0.64990  0.21730  0.77720  Biso   1.000  C
  O1       1.0000 0.84470  0.56950  0.81020  Biso   1.000  O
  O2       1.0000 0.51160  0.57350  0.85440  Biso   1.000  O
  O3       1.0000 0.19920  0.76610  0.93180  Biso   1.000  O
  O4       1.0000 0.15530  0.75930  0.18980  Biso   1.000  O
  O5       1.0000 0.48840  0.71910  0.14560  Biso   1.000  O
  O6       1.0000 0.80080  0.83430  0.06820  Biso   1.000  O
  O7       1.0000 0.15530  0.43050  0.18980  Biso   1.000  O
  O8       1.0000 0.48840  0.42650  0.14560  Biso   1.000  O
  O9       1.0000 0.80080  0.23390  0.06820  Biso   1.000  O
  O10      1.0000 0.84470  0.24070  0.81020  Biso   1.000  O
  O11      1.0000 0.51160  0.28090  0.85440  Biso   1.000  O
  O12      1.0000 0.19920  0.16570  0.93180  Biso   1.000  O
  O13      1.0000 0.81700  0.52880  0.05760  Biso   1.000  O
  O14      1.0000 0.18300  0.47120  0.94240  Biso   1.000  O
