data_image0
_cell_length_a       15.44
_cell_length_b       15.44
_cell_length_c       16.254
_cell_angle_alpha    90
_cell_angle_beta     90
_cell_angle_gamma    120

_symmetry_space_group_name_H-M    P 1
_symmetry_int_tables_number       1

loop_
  _symmetry_equiv_pos_as_xyz
  'x, y, z'

loop_
  _atom_site_label
  _atom_site_occupancy
  _atom_site_fract_x
  _atom_site_fract_y
  _atom_site_fract_z
  _atom_site_thermal_displace_type
  _atom_site_B_iso_or_equiv
  _atom_site_type_symbol
  Yb1      1.0000 0.66667  0.33334  0.75000  Biso   1.000  Yb
  Yb2      1.0000 0.33333  0.66666  0.75000  Biso   1.000  Yb
  Yb3      1.0000 0.33333  0.66666  0.25000  Biso   1.000  Yb
  Yb4      1.0000 0.66667  0.33334  0.25000  Biso   1.000  Yb
  Mn1      1.0000 0.50000  0.00000  0.00000  Biso   1.000  Mn
  Mn2      1.0000 0.50000  0.50000  0.00000  Biso   1.000  Mn
  Mn3      1.0000 1.00000  0.50000  0.00000  Biso   1.000  Mn
  Mn4      1.0000 0.50000  0.00000  0.50000  Biso   1.000  Mn
  Mn5      1.0000 1.00000  0.50000  0.50000  Biso   1.000  Mn
  Mn6      1.0000 0.50000  0.50000  0.50000  Biso   1.000  Mn
  H1       1.0000 0.29910  0.85240  0.96860  Biso   1.000  H
  H2       1.0000 0.29150  0.05950  0.84370  Biso   1.000  H
  H3       1.0000 0.55330  0.70090  0.96860  Biso   1.000  H
  H4       1.0000 0.76800  0.70850  0.84370  Biso   1.000  H
  H5       1.0000 0.14760  0.44670  0.96860  Biso   1.000  H
  H6       1.0000 0.94050  0.23200  0.84370  Biso   1.000  H
  H7       1.0000 0.70090  0.14760  0.96860  Biso   1.000  H
  H8       1.0000 0.70850  0.94050  0.84370  Biso   1.000  H
  H9       1.0000 0.44670  0.29910  0.96860  Biso   1.000  H
  H10      1.0000 0.23200  0.29150  0.84370  Biso   1.000  H
  H11      1.0000 0.85240  0.55330  0.96860  Biso   1.000  H
  H12      1.0000 0.05950  0.76800  0.84370  Biso   1.000  H
  H13      1.0000 0.44670  0.14760  0.53140  Biso   1.000  H
  H14      1.0000 0.23200  0.94050  0.65630  Biso   1.000  H
  H15      1.0000 0.85240  0.29910  0.53140  Biso   1.000  H
  H16      1.0000 0.05950  0.29150  0.65630  Biso   1.000  H
  H17      1.0000 0.70090  0.55330  0.53140  Biso   1.000  H
  H18      1.0000 0.70850  0.76800  0.65630  Biso   1.000  H
  H19      1.0000 0.55330  0.85240  0.53140  Biso   1.000  H
  H20      1.0000 0.76800  0.05950  0.65630  Biso   1.000  H
  H21      1.0000 0.14760  0.70090  0.53140  Biso   1.000  H
  H22      1.0000 0.94050  0.70850  0.65630  Biso   1.000  H
  H23      1.0000 0.29910  0.44670  0.53140  Biso   1.000  H
  H24      1.0000 0.29150  0.23200  0.65630  Biso   1.000  H
  H25      1.0000 0.70090  0.14760  0.03140  Biso   1.000  H
  H26      1.0000 0.70850  0.94050  0.15630  Biso   1.000  H
  H27      1.0000 0.44670  0.29910  0.03140  Biso   1.000  H
  H28      1.0000 0.23200  0.29150  0.15630  Biso   1.000  H
  H29      1.0000 0.85240  0.55330  0.03140  Biso   1.000  H
  H30      1.0000 0.05950  0.76800  0.15630  Biso   1.000  H
  H31      1.0000 0.29910  0.85240  0.03140  Biso   1.000  H
  H32      1.0000 0.29150  0.05950  0.15630  Biso   1.000  H
  H33      1.0000 0.55330  0.70090  0.03140  Biso   1.000  H
  H34      1.0000 0.76800  0.70850  0.15630  Biso   1.000  H
  H35      1.0000 0.14760  0.44670  0.03140  Biso   1.000  H
  H36      1.0000 0.94050  0.23200  0.15630  Biso   1.000  H
  H37      1.0000 0.55330  0.85240  0.46860  Biso   1.000  H
  H38      1.0000 0.76800  0.05950  0.34370  Biso   1.000  H
  H39      1.0000 0.14760  0.70090  0.46860  Biso   1.000  H
  H40      1.0000 0.94050  0.70850  0.34370  Biso   1.000  H
  H41      1.0000 0.29910  0.44670  0.46860  Biso   1.000  H
  H42      1.0000 0.29150  0.23200  0.34370  Biso   1.000  H
  H43      1.0000 0.44670  0.14760  0.46860  Biso   1.000  H
  H44      1.0000 0.23200  0.94050  0.34370  Biso   1.000  H
  H45      1.0000 0.85240  0.29910  0.46860  Biso   1.000  H
  H46      1.0000 0.05950  0.29150  0.34370  Biso   1.000  H
  H47      1.0000 0.70090  0.55330  0.46860  Biso   1.000  H
  H48      1.0000 0.70850  0.76800  0.34370  Biso   1.000  H
  H49      1.0000 0.20280  0.10140  0.75000  Biso   1.000  H
  H50      1.0000 0.89860  0.79720  0.75000  Biso   1.000  H
  H51      1.0000 0.89860  0.10140  0.75000  Biso   1.000  H
  H52      1.0000 0.79720  0.89860  0.75000  Biso   1.000  H
  H53      1.0000 0.10140  0.20280  0.75000  Biso   1.000  H
  H54      1.0000 0.10140  0.89860  0.75000  Biso   1.000  H
  H55      1.0000 0.79720  0.89860  0.25000  Biso   1.000  H
  H56      1.0000 0.10140  0.20280  0.25000  Biso   1.000  H
  H57      1.0000 0.10140  0.89860  0.25000  Biso   1.000  H
  H58      1.0000 0.20280  0.10140  0.25000  Biso   1.000  H
  H59      1.0000 0.89860  0.79720  0.25000  Biso   1.000  H
  H60      1.0000 0.89860  0.10140  0.25000  Biso   1.000  H
  C1       1.0000 0.32520  0.11060  0.80570  Biso   1.000  C
  C2       1.0000 0.42870  0.16310  0.80280  Biso   1.000  C
  C3       1.0000 0.49580  0.14260  0.86040  Biso   1.000  C
  C4       1.0000 0.78540  0.67480  0.80570  Biso   1.000  C
  C5       1.0000 0.73440  0.57130  0.80280  Biso   1.000  C
  C6       1.0000 0.64680  0.50420  0.86040  Biso   1.000  C
  C7       1.0000 0.88940  0.21460  0.80570  Biso   1.000  C
  C8       1.0000 0.83690  0.26560  0.80280  Biso   1.000  C
  C9       1.0000 0.85740  0.35320  0.86040  Biso   1.000  C
  C10      1.0000 0.67480  0.88940  0.80570  Biso   1.000  C
  C11      1.0000 0.57130  0.83690  0.80280  Biso   1.000  C
  C12      1.0000 0.50420  0.85740  0.86040  Biso   1.000  C
  C13      1.0000 0.21460  0.32520  0.80570  Biso   1.000  C
  C14      1.0000 0.26560  0.42870  0.80280  Biso   1.000  C
  C15      1.0000 0.35320  0.49580  0.86040  Biso   1.000  C
  C16      1.0000 0.11060  0.78540  0.80570  Biso   1.000  C
  C17      1.0000 0.16310  0.73440  0.80280  Biso   1.000  C
  C18      1.0000 0.14260  0.64680  0.86040  Biso   1.000  C
  C19      1.0000 0.21460  0.88940  0.69430  Biso   1.000  C
  C20      1.0000 0.26560  0.83690  0.69720  Biso   1.000  C
  C21      1.0000 0.35320  0.85740  0.63960  Biso   1.000  C
  C22      1.0000 0.11060  0.32520  0.69430  Biso   1.000  C
  C23      1.0000 0.16310  0.42870  0.69720  Biso   1.000  C
  C24      1.0000 0.14260  0.49580  0.63960  Biso   1.000  C
  C25      1.0000 0.67480  0.78540  0.69430  Biso   1.000  C
  C26      1.0000 0.57130  0.73440  0.69720  Biso   1.000  C
  C27      1.0000 0.50420  0.64680  0.63960  Biso   1.000  C
  C28      1.0000 0.78540  0.11060  0.69430  Biso   1.000  C
  C29      1.0000 0.73440  0.16310  0.69720  Biso   1.000  C
  C30      1.0000 0.64680  0.14260  0.63960  Biso   1.000  C
  C31      1.0000 0.88940  0.67480  0.69430  Biso   1.000  C
  C32      1.0000 0.83690  0.57130  0.69720  Biso   1.000  C
  C33      1.0000 0.85740  0.50420  0.63960  Biso   1.000  C
  C34      1.0000 0.32520  0.21460  0.69430  Biso   1.000  C
  C35      1.0000 0.42870  0.26560  0.69720  Biso   1.000  C
  C36      1.0000 0.49580  0.35320  0.63960  Biso   1.000  C
  C37      1.0000 0.67480  0.88940  0.19430  Biso   1.000  C
  C38      1.0000 0.57130  0.83690  0.19720  Biso   1.000  C
  C39      1.0000 0.50420  0.85740  0.13960  Biso   1.000  C
  C40      1.0000 0.21460  0.32520  0.19430  Biso   1.000  C
  C41      1.0000 0.26560  0.42870  0.19720  Biso   1.000  C
  C42      1.0000 0.35320  0.49580  0.13960  Biso   1.000  C
  C43      1.0000 0.11060  0.78540  0.19430  Biso   1.000  C
  C44      1.0000 0.16310  0.73440  0.19720  Biso   1.000  C
  C45      1.0000 0.14260  0.64680  0.13960  Biso   1.000  C
  C46      1.0000 0.32520  0.11060  0.19430  Biso   1.000  C
  C47      1.0000 0.42870  0.16310  0.19720  Biso   1.000  C
  C48      1.0000 0.49580  0.14260  0.13960  Biso   1.000  C
  C49      1.0000 0.78540  0.67480  0.19430  Biso   1.000  C
  C50      1.0000 0.73440  0.57130  0.19720  Biso   1.000  C
  C51      1.0000 0.64680  0.50420  0.13960  Biso   1.000  C
  C52      1.0000 0.88940  0.21460  0.19430  Biso   1.000  C
  C53      1.0000 0.83690  0.26560  0.19720  Biso   1.000  C
  C54      1.0000 0.85740  0.35320  0.13960  Biso   1.000  C
  C55      1.0000 0.78540  0.11060  0.30570  Biso   1.000  C
  C56      1.0000 0.73440  0.16310  0.30280  Biso   1.000  C
  C57      1.0000 0.64680  0.14260  0.36040  Biso   1.000  C
  C58      1.0000 0.88940  0.67480  0.30570  Biso   1.000  C
  C59      1.0000 0.83690  0.57130  0.30280  Biso   1.000  C
  C60      1.0000 0.85740  0.50420  0.36040  Biso   1.000  C
  C61      1.0000 0.32520  0.21460  0.30570  Biso   1.000  C
  C62      1.0000 0.42870  0.26560  0.30280  Biso   1.000  C
  C63      1.0000 0.49580  0.35320  0.36040  Biso   1.000  C
  C64      1.0000 0.21460  0.88940  0.30570  Biso   1.000  C
  C65      1.0000 0.26560  0.83690  0.30280  Biso   1.000  C
  C66      1.0000 0.35320  0.85740  0.36040  Biso   1.000  C
  C67      1.0000 0.11060  0.32520  0.30570  Biso   1.000  C
  C68      1.0000 0.16310  0.42870  0.30280  Biso   1.000  C
  C69      1.0000 0.14260  0.49580  0.36040  Biso   1.000  C
  C70      1.0000 0.67480  0.78540  0.30570  Biso   1.000  C
  C71      1.0000 0.57130  0.73440  0.30280  Biso   1.000  C
  C72      1.0000 0.50420  0.64680  0.36040  Biso   1.000  C
  C73      1.0000 0.27230  0.13615  0.75000  Biso   1.000  C
  C74      1.0000 0.86385  0.72770  0.75000  Biso   1.000  C
  C75      1.0000 0.86385  0.13615  0.75000  Biso   1.000  C
  C76      1.0000 0.72770  0.86385  0.75000  Biso   1.000  C
  C77      1.0000 0.13615  0.27230  0.75000  Biso   1.000  C
  C78      1.0000 0.13615  0.86385  0.75000  Biso   1.000  C
  C79      1.0000 0.72770  0.86385  0.25000  Biso   1.000  C
  C80      1.0000 0.13615  0.27230  0.25000  Biso   1.000  C
  C81      1.0000 0.13615  0.86385  0.25000  Biso   1.000  C
  C82      1.0000 0.27230  0.13615  0.25000  Biso   1.000  C
  C83      1.0000 0.86385  0.72770  0.25000  Biso   1.000  C
  C84      1.0000 0.86385  0.13615  0.25000  Biso   1.000  C
  N1       1.0000 0.48100  0.24050  0.75000  Biso   1.000  N
  N2       1.0000 0.75950  0.51900  0.75000  Biso   1.000  N
  N3       1.0000 0.75950  0.24050  0.75000  Biso   1.000  N
  N4       1.0000 0.51900  0.75950  0.75000  Biso   1.000  N
  N5       1.0000 0.24050  0.48100  0.75000  Biso   1.000  N
  N6       1.0000 0.24050  0.75950  0.75000  Biso   1.000  N
  N7       1.0000 0.51900  0.75950  0.25000  Biso   1.000  N
  N8       1.0000 0.24050  0.48100  0.25000  Biso   1.000  N
  N9       1.0000 0.24050  0.75950  0.25000  Biso   1.000  N
  N10      1.0000 0.48100  0.24050  0.25000  Biso   1.000  N
  N11      1.0000 0.75950  0.51900  0.25000  Biso   1.000  N
  N12      1.0000 0.75950  0.24050  0.25000  Biso   1.000  N
  O1       1.0000 0.59130  0.20170  0.85410  Biso   1.000  O
  O2       1.0000 0.45100  0.06750  0.90730  Biso   1.000  O
  O3       1.0000 0.61040  0.40870  0.85410  Biso   1.000  O
  O4       1.0000 0.61650  0.54900  0.90730  Biso   1.000  O
  O5       1.0000 0.79830  0.38960  0.85410  Biso   1.000  O
  O6       1.0000 0.93250  0.38350  0.90730  Biso   1.000  O
  O7       1.0000 0.40870  0.79830  0.85410  Biso   1.000  O
  O8       1.0000 0.54900  0.93250  0.90730  Biso   1.000  O
  O9       1.0000 0.38960  0.59130  0.85410  Biso   1.000  O
  O10      1.0000 0.38350  0.45100  0.90730  Biso   1.000  O
  O11      1.0000 0.20170  0.61040  0.85410  Biso   1.000  O
  O12      1.0000 0.06750  0.61650  0.90730  Biso   1.000  O
  O13      1.0000 0.38960  0.79830  0.64590  Biso   1.000  O
  O14      1.0000 0.38350  0.93250  0.59270  Biso   1.000  O
  O15      1.0000 0.20170  0.59130  0.64590  Biso   1.000  O
  O16      1.0000 0.06750  0.45100  0.59270  Biso   1.000  O
  O17      1.0000 0.40870  0.61040  0.64590  Biso   1.000  O
  O18      1.0000 0.54900  0.61650  0.59270  Biso   1.000  O
  O19      1.0000 0.61040  0.20170  0.64590  Biso   1.000  O
  O20      1.0000 0.61650  0.06750  0.59270  Biso   1.000  O
  O21      1.0000 0.79830  0.40870  0.64590  Biso   1.000  O
  O22      1.0000 0.93250  0.54900  0.59270  Biso   1.000  O
  O23      1.0000 0.59130  0.38960  0.64590  Biso   1.000  O
  O24      1.0000 0.45100  0.38350  0.59270  Biso   1.000  O
  O25      1.0000 0.40870  0.79830  0.14590  Biso   1.000  O
  O26      1.0000 0.54900  0.93250  0.09270  Biso   1.000  O
  O27      1.0000 0.38960  0.59130  0.14590  Biso   1.000  O
  O28      1.0000 0.38350  0.45100  0.09270  Biso   1.000  O
  O29      1.0000 0.20170  0.61040  0.14590  Biso   1.000  O
  O30      1.0000 0.06750  0.61650  0.09270  Biso   1.000  O
  O31      1.0000 0.59130  0.20170  0.14590  Biso   1.000  O
  O32      1.0000 0.45100  0.06750  0.09270  Biso   1.000  O
  O33      1.0000 0.61040  0.40870  0.14590  Biso   1.000  O
  O34      1.0000 0.61650  0.54900  0.09270  Biso   1.000  O
  O35      1.0000 0.79830  0.38960  0.14590  Biso   1.000  O
  O36      1.0000 0.93250  0.38350  0.09270  Biso   1.000  O
  O37      1.0000 0.61040  0.20170  0.35410  Biso   1.000  O
  O38      1.0000 0.61650  0.06750  0.40730  Biso   1.000  O
  O39      1.0000 0.79830  0.40870  0.35410  Biso   1.000  O
  O40      1.0000 0.93250  0.54900  0.40730  Biso   1.000  O
  O41      1.0000 0.59130  0.38960  0.35410  Biso   1.000  O
  O42      1.0000 0.45100  0.38350  0.40730  Biso   1.000  O
  O43      1.0000 0.38960  0.79830  0.35410  Biso   1.000  O
  O44      1.0000 0.38350  0.93250  0.40730  Biso   1.000  O
  O45      1.0000 0.20170  0.59130  0.35410  Biso   1.000  O
  O46      1.0000 0.06750  0.45100  0.40730  Biso   1.000  O
  O47      1.0000 0.40870  0.61040  0.35410  Biso   1.000  O
  O48      1.0000 0.54900  0.61650  0.40730  Biso   1.000  O
  O49      1.0000 0.34520  0.85680  0.00000  Biso   1.000  O
  O50      1.0000 0.51160  0.65480  0.00000  Biso   1.000  O
  O51      1.0000 0.14320  0.48840  0.00000  Biso   1.000  O
  O52      1.0000 0.65480  0.14320  0.00000  Biso   1.000  O
  O53      1.0000 0.48840  0.34520  0.00000  Biso   1.000  O
  O54      1.0000 0.85680  0.51160  0.00000  Biso   1.000  O
  O55      1.0000 0.48840  0.14320  0.50000  Biso   1.000  O
  O56      1.0000 0.85680  0.34520  0.50000  Biso   1.000  O
  O57      1.0000 0.65480  0.51160  0.50000  Biso   1.000  O
  O58      1.0000 0.51160  0.85680  0.50000  Biso   1.000  O
  O59      1.0000 0.14320  0.65480  0.50000  Biso   1.000  O
  O60      1.0000 0.34520  0.48840  0.50000  Biso   1.000  O
