data_image0
_cell_length_a       14.2941
_cell_length_b       15.4016
_cell_length_c       16.7256
_cell_angle_alpha    90
_cell_angle_beta     90
_cell_angle_gamma    115.904

_symmetry_space_group_name_H-M    P 1
_symmetry_int_tables_number       1

loop_
  _symmetry_equiv_pos_as_xyz
  'x, y, z'

loop_
  _atom_site_label
  _atom_site_occupancy
  _atom_site_fract_x
  _atom_site_fract_y
  _atom_site_fract_z
  _atom_site_thermal_displace_type
  _atom_site_B_iso_or_equiv
  _atom_site_type_symbol
  Cd1      1.0000 0.83284  0.20662  0.36975  Biso   1.000  Cd
  Cd2      1.0000 0.12354  0.27352  0.36419  Biso   1.000  Cd
  Cd3      1.0000 0.66716  0.29338  0.86975  Biso   1.000  Cd
  Cd4      1.0000 0.37646  0.22648  0.86419  Biso   1.000  Cd
  Cd5      1.0000 0.16716  0.79338  0.63025  Biso   1.000  Cd
  Cd6      1.0000 0.87646  0.72648  0.63581  Biso   1.000  Cd
  Cd7      1.0000 0.33284  0.70662  0.13025  Biso   1.000  Cd
  Cd8      1.0000 0.62354  0.77352  0.13581  Biso   1.000  Cd
  H1       1.0000 0.31770  0.33730  0.48380  Biso   1.000  H
  H2       1.0000 0.43680  0.21670  0.66120  Biso   1.000  H
  H3       1.0000 0.53810  0.31820  0.65770  Biso   1.000  H
  H4       1.0000 0.34790  0.10850  0.57660  Biso   1.000  H
  H5       1.0000 0.63970  0.17050  0.48700  Biso   1.000  H
  H6       1.0000 0.65320  0.41420  0.58590  Biso   1.000  H
  H7       1.0000 0.88740  0.41600  0.44940  Biso   1.000  H
  H8       1.0000 0.93370  0.52800  0.32350  Biso   1.000  H
  H9       1.0000 0.85130  0.64400  0.30650  Biso   1.000  H
  H10      1.0000 0.91060  0.63550  0.38580  Biso   1.000  H
  H11      1.0000 0.98410  0.94240  0.36790  Biso   1.000  H
  H12      1.0000 0.78650  0.96710  0.20710  Biso   1.000  H
  H13      1.0000 0.75690  0.70750  0.26400  Biso   1.000  H
  H14      1.0000 0.15570  0.75690  0.21060  Biso   1.000  H
  H15      1.0000 0.17030  0.50740  0.20490  Biso   1.000  H
  H16      1.0000 0.10380  0.07470  0.43710  Biso   1.000  H
  H17      1.0000 0.99840  0.30350  0.46620  Biso   1.000  H
  H18      1.0000 0.96230  0.18890  0.47590  Biso   1.000  H
  H19      1.0000 0.18230  0.16270  0.98380  Biso   1.000  H
  H20      1.0000 0.06320  0.28330  0.16120  Biso   1.000  H
  H21      1.0000 0.96190  0.18180  0.15770  Biso   1.000  H
  H22      1.0000 0.15210  0.39150  0.07660  Biso   1.000  H
  H23      1.0000 0.86030  0.32950  0.98700  Biso   1.000  H
  H24      1.0000 0.84680  0.08580  0.08590  Biso   1.000  H
  H25      1.0000 0.61260  0.08400  0.94940  Biso   1.000  H
  H26      1.0000 0.56630  0.97200  0.82350  Biso   1.000  H
  H27      1.0000 0.64870  0.85600  0.80650  Biso   1.000  H
  H28      1.0000 0.58940  0.86450  0.88580  Biso   1.000  H
  H29      1.0000 0.51590  0.55760  0.86790  Biso   1.000  H
  H30      1.0000 0.71350  0.53290  0.70710  Biso   1.000  H
  H31      1.0000 0.74310  0.79250  0.76400  Biso   1.000  H
  H32      1.0000 0.34430  0.74310  0.71060  Biso   1.000  H
  H33      1.0000 0.32970  0.99260  0.70490  Biso   1.000  H
  H34      1.0000 0.39620  0.42530  0.93710  Biso   1.000  H
  H35      1.0000 0.50160  0.19650  0.96620  Biso   1.000  H
  H36      1.0000 0.53770  0.31110  0.97590  Biso   1.000  H
  H37      1.0000 0.68230  0.66270  0.51620  Biso   1.000  H
  H38      1.0000 0.56320  0.78330  0.33880  Biso   1.000  H
  H39      1.0000 0.46190  0.68180  0.34230  Biso   1.000  H
  H40      1.0000 0.65210  0.89150  0.42340  Biso   1.000  H
  H41      1.0000 0.36030  0.82950  0.51300  Biso   1.000  H
  H42      1.0000 0.34680  0.58580  0.41410  Biso   1.000  H
  H43      1.0000 0.11260  0.58400  0.55060  Biso   1.000  H
  H44      1.0000 0.06630  0.47200  0.67650  Biso   1.000  H
  H45      1.0000 0.14870  0.35600  0.69350  Biso   1.000  H
  H46      1.0000 0.08940  0.36450  0.61420  Biso   1.000  H
  H47      1.0000 0.01590  0.05760  0.63210  Biso   1.000  H
  H48      1.0000 0.21350  0.03290  0.79290  Biso   1.000  H
  H49      1.0000 0.24310  0.29250  0.73600  Biso   1.000  H
  H50      1.0000 0.84430  0.24310  0.78940  Biso   1.000  H
  H51      1.0000 0.82970  0.49260  0.79510  Biso   1.000  H
  H52      1.0000 0.89620  0.92530  0.56290  Biso   1.000  H
  H53      1.0000 0.00160  0.69650  0.53380  Biso   1.000  H
  H54      1.0000 0.03770  0.81110  0.52410  Biso   1.000  H
  H55      1.0000 0.81770  0.83730  0.01620  Biso   1.000  H
  H56      1.0000 0.93680  0.71670  0.83880  Biso   1.000  H
  H57      1.0000 0.03810  0.81820  0.84230  Biso   1.000  H
  H58      1.0000 0.84790  0.60850  0.92340  Biso   1.000  H
  H59      1.0000 0.13970  0.67050  0.01300  Biso   1.000  H
  H60      1.0000 0.15320  0.91420  0.91410  Biso   1.000  H
  H61      1.0000 0.38740  0.91600  0.05060  Biso   1.000  H
  H62      1.0000 0.43370  0.02800  0.17650  Biso   1.000  H
  H63      1.0000 0.35130  0.14400  0.19350  Biso   1.000  H
  H64      1.0000 0.41060  0.13550  0.11420  Biso   1.000  H
  H65      1.0000 0.48410  0.44240  0.13210  Biso   1.000  H
  H66      1.0000 0.28650  0.46710  0.29290  Biso   1.000  H
  H67      1.0000 0.25690  0.20750  0.23600  Biso   1.000  H
  H68      1.0000 0.65570  0.25690  0.28940  Biso   1.000  H
  H69      1.0000 0.67030  0.00740  0.29510  Biso   1.000  H
  H70      1.0000 0.60380  0.57470  0.06290  Biso   1.000  H
  H71      1.0000 0.49840  0.80350  0.03380  Biso   1.000  H
  H72      1.0000 0.46230  0.68890  0.02410  Biso   1.000  H
  C1       1.0000 0.29180  0.26940  0.49010  Biso   1.000  C
  C2       1.0000 0.34660  0.23320  0.53790  Biso   1.000  C
  C3       1.0000 0.48750  0.26500  0.62470  Biso   1.000  C
  C4       1.0000 0.31010  0.13450  0.54610  Biso   1.000  C
  C5       1.0000 0.21820  0.07450  0.50950  Biso   1.000  C
  C6       1.0000 0.17450  0.96650  0.51770  Biso   1.000  C
  C7       1.0000 0.67660  0.23820  0.49530  Biso   1.000  C
  C8       1.0000 0.63270  0.28230  0.54470  Biso   1.000  C
  C9       1.0000 0.68370  0.38110  0.55540  Biso   1.000  C
  C10      1.0000 0.78070  0.43050  0.52040  Biso   1.000  C
  C11      1.0000 0.84080  0.53820  0.53300  Biso   1.000  C
  C12      1.0000 0.82080  0.38140  0.47290  Biso   1.000  C
  C13      1.0000 0.00140  0.39430  0.28720  Biso   1.000  C
  C14      1.0000 0.04380  0.50030  0.26460  Biso   1.000  C
  C15      1.0000 0.99570  0.55600  0.29270  Biso   1.000  C
  C16      1.0000 0.04110  0.65390  0.27430  Biso   1.000  C
  C17      1.0000 0.91010  0.67980  0.34310  Biso   1.000  C
  C18      1.0000 0.87350  0.81460  0.32420  Biso   1.000  C
  C19      1.0000 0.92630  0.91410  0.33280  Biso   1.000  C
  C20      1.0000 0.89190  0.97100  0.28850  Biso   1.000  C
  C21      1.0000 0.80980  0.92760  0.23680  Biso   1.000  C
  C22      1.0000 0.79190  0.77560  0.27020  Biso   1.000  C
  C23      1.0000 0.94290  0.07980  0.29740  Biso   1.000  C
  C24      1.0000 0.12830  0.69110  0.22630  Biso   1.000  C
  C25      1.0000 0.13530  0.54460  0.22100  Biso   1.000  C
  C26      1.0000 0.16700  0.11590  0.46270  Biso   1.000  C
  C27      1.0000 0.20820  0.23060  0.99010  Biso   1.000  C
  C28      1.0000 0.15340  0.26680  0.03790  Biso   1.000  C
  C29      1.0000 0.01250  0.23500  0.12470  Biso   1.000  C
  C30      1.0000 0.18990  0.36550  0.04610  Biso   1.000  C
  C31      1.0000 0.28180  0.42550  0.00950  Biso   1.000  C
  C32      1.0000 0.32550  0.53350  0.01770  Biso   1.000  C
  C33      1.0000 0.82340  0.26180  0.99530  Biso   1.000  C
  C34      1.0000 0.86730  0.21770  0.04470  Biso   1.000  C
  C35      1.0000 0.81630  0.11890  0.05540  Biso   1.000  C
  C36      1.0000 0.71930  0.06950  0.02040  Biso   1.000  C
  C37      1.0000 0.65920  0.96180  0.03300  Biso   1.000  C
  C38      1.0000 0.67920  0.11860  0.97290  Biso   1.000  C
  C39      1.0000 0.49860  0.10570  0.78720  Biso   1.000  C
  C40      1.0000 0.45620  0.99970  0.76460  Biso   1.000  C
  C41      1.0000 0.50430  0.94400  0.79270  Biso   1.000  C
  C42      1.0000 0.45890  0.84610  0.77430  Biso   1.000  C
  C43      1.0000 0.58990  0.82020  0.84310  Biso   1.000  C
  C44      1.0000 0.62650  0.68540  0.82420  Biso   1.000  C
  C45      1.0000 0.57370  0.58590  0.83280  Biso   1.000  C
  C46      1.0000 0.60810  0.52900  0.78850  Biso   1.000  C
  C47      1.0000 0.69020  0.57240  0.73680  Biso   1.000  C
  C48      1.0000 0.70810  0.72440  0.77020  Biso   1.000  C
  C49      1.0000 0.55710  0.42020  0.79740  Biso   1.000  C
  C50      1.0000 0.37170  0.80890  0.72630  Biso   1.000  C
  C51      1.0000 0.36470  0.95540  0.72100  Biso   1.000  C
  C52      1.0000 0.33300  0.38410  0.96270  Biso   1.000  C
  C53      1.0000 0.70820  0.73060  0.50990  Biso   1.000  C
  C54      1.0000 0.65340  0.76680  0.46210  Biso   1.000  C
  C55      1.0000 0.51250  0.73500  0.37530  Biso   1.000  C
  C56      1.0000 0.68990  0.86550  0.45390  Biso   1.000  C
  C57      1.0000 0.78180  0.92550  0.49050  Biso   1.000  C
  C58      1.0000 0.82550  0.03350  0.48230  Biso   1.000  C
  C59      1.0000 0.32340  0.76180  0.50470  Biso   1.000  C
  C60      1.0000 0.36730  0.71770  0.45530  Biso   1.000  C
  C61      1.0000 0.31630  0.61890  0.44460  Biso   1.000  C
  C62      1.0000 0.21930  0.56950  0.47960  Biso   1.000  C
  C63      1.0000 0.15920  0.46180  0.46700  Biso   1.000  C
  C64      1.0000 0.17920  0.61860  0.52710  Biso   1.000  C
  C65      1.0000 0.99860  0.60570  0.71280  Biso   1.000  C
  C66      1.0000 0.95620  0.49970  0.73540  Biso   1.000  C
  C67      1.0000 0.00430  0.44400  0.70730  Biso   1.000  C
  C68      1.0000 0.95890  0.34610  0.72570  Biso   1.000  C
  C69      1.0000 0.08990  0.32020  0.65690  Biso   1.000  C
  C70      1.0000 0.12650  0.18540  0.67580  Biso   1.000  C
  C71      1.0000 0.07370  0.08590  0.66720  Biso   1.000  C
  C72      1.0000 0.10810  0.02900  0.71150  Biso   1.000  C
  C73      1.0000 0.19020  0.07240  0.76320  Biso   1.000  C
  C74      1.0000 0.20810  0.22440  0.72980  Biso   1.000  C
  C75      1.0000 0.05710  0.92020  0.70260  Biso   1.000  C
  C76      1.0000 0.87170  0.30890  0.77370  Biso   1.000  C
  C77      1.0000 0.86470  0.45540  0.77900  Biso   1.000  C
  C78      1.0000 0.83300  0.88410  0.53730  Biso   1.000  C
  C79      1.0000 0.79180  0.76940  0.00990  Biso   1.000  C
  C80      1.0000 0.84660  0.73320  0.96210  Biso   1.000  C
  C81      1.0000 0.98750  0.76500  0.87530  Biso   1.000  C
  C82      1.0000 0.81010  0.63450  0.95390  Biso   1.000  C
  C83      1.0000 0.71820  0.57450  0.99050  Biso   1.000  C
  C84      1.0000 0.67450  0.46650  0.98230  Biso   1.000  C
  C85      1.0000 0.17660  0.73820  0.00470  Biso   1.000  C
  C86      1.0000 0.13270  0.78230  0.95530  Biso   1.000  C
  C87      1.0000 0.18370  0.88110  0.94460  Biso   1.000  C
  C88      1.0000 0.28070  0.93050  0.97960  Biso   1.000  C
  C89      1.0000 0.34080  0.03820  0.96700  Biso   1.000  C
  C90      1.0000 0.32080  0.88140  0.02710  Biso   1.000  C
  C91      1.0000 0.50140  0.89430  0.21280  Biso   1.000  C
  C92      1.0000 0.54380  0.00030  0.23540  Biso   1.000  C
  C93      1.0000 0.49570  0.05600  0.20730  Biso   1.000  C
  C94      1.0000 0.54110  0.15390  0.22570  Biso   1.000  C
  C95      1.0000 0.41010  0.17980  0.15690  Biso   1.000  C
  C96      1.0000 0.37350  0.31460  0.17580  Biso   1.000  C
  C97      1.0000 0.42630  0.41410  0.16720  Biso   1.000  C
  C98      1.0000 0.39190  0.47100  0.21150  Biso   1.000  C
  C99      1.0000 0.30980  0.42760  0.26320  Biso   1.000  C
  C100     1.0000 0.29190  0.27560  0.22980  Biso   1.000  C
  C101     1.0000 0.44290  0.57980  0.20260  Biso   1.000  C
  C102     1.0000 0.62830  0.19110  0.27370  Biso   1.000  C
  C103     1.0000 0.63530  0.04460  0.27900  Biso   1.000  C
  C104     1.0000 0.66700  0.61590  0.03730  Biso   1.000  C
  N1       1.0000 0.76800  0.28560  0.45880  Biso   1.000  N
  N2       1.0000 0.76100  0.83150  0.22660  Biso   1.000  N
  N3       1.0000 0.20400  0.21130  0.45280  Biso   1.000  N
  N4       1.0000 0.17570  0.63820  0.20100  Biso   1.000  N
  N5       1.0000 0.73200  0.21440  0.95880  Biso   1.000  N
  N6       1.0000 0.73900  0.66850  0.72660  Biso   1.000  N
  N7       1.0000 0.29600  0.28870  0.95280  Biso   1.000  N
  N8       1.0000 0.32430  0.86180  0.70100  Biso   1.000  N
  N9       1.0000 0.23200  0.71440  0.54120  Biso   1.000  N
  N10      1.0000 0.23900  0.16850  0.77340  Biso   1.000  N
  N11      1.0000 0.79600  0.78870  0.54720  Biso   1.000  N
  N12      1.0000 0.82430  0.36180  0.79900  Biso   1.000  N
  N13      1.0000 0.26800  0.78560  0.04120  Biso   1.000  N
  N14      1.0000 0.26100  0.33150  0.27340  Biso   1.000  N
  N15      1.0000 0.70400  0.71130  0.04720  Biso   1.000  N
  N16      1.0000 0.67570  0.13820  0.29900  Biso   1.000  N
  O1       1.0000 0.79610  0.57900  0.57150  Biso   1.000  O
  O2       1.0000 0.43500  0.30160  0.57400  Biso   1.000  O
  O3       1.0000 0.22780  0.93470  0.55750  Biso   1.000  O
  O4       1.0000 0.54030  0.22160  0.58070  Biso   1.000  O
  O5       1.0000 0.93190  0.57730  0.50490  Biso   1.000  O
  O6       1.0000 0.88650  0.12160  0.28210  Biso   1.000  O
  O7       1.0000 0.90770  0.35390  0.31000  Biso   1.000  O
  O8       1.0000 0.00620  0.71880  0.30060  Biso   1.000  O
  O9       1.0000 0.90190  0.75920  0.37540  Biso   1.000  O
  O10      1.0000 0.06360  0.35750  0.28090  Biso   1.000  O
  O11      1.0000 0.08850  0.91710  0.48560  Biso   1.000  O
  O12      1.0000 0.03710  0.11930  0.31790  Biso   1.000  O
  O13      1.0000 0.98190  0.24730  0.44540  Biso   1.000  O
  O14      1.0000 0.70390  0.92100  0.07150  Biso   1.000  O
  O15      1.0000 0.06500  0.19840  0.07400  Biso   1.000  O
  O16      1.0000 0.27220  0.56530  0.05750  Biso   1.000  O
  O17      1.0000 0.95970  0.27840  0.08070  Biso   1.000  O
  O18      1.0000 0.56810  0.92270  0.00490  Biso   1.000  O
  O19      1.0000 0.61350  0.37840  0.78210  Biso   1.000  O
  O20      1.0000 0.59230  0.14610  0.81000  Biso   1.000  O
  O21      1.0000 0.49380  0.78120  0.80060  Biso   1.000  O
  O22      1.0000 0.59810  0.74080  0.87540  Biso   1.000  O
  O23      1.0000 0.43640  0.14250  0.78090  Biso   1.000  O
  O24      1.0000 0.41150  0.58290  0.98560  Biso   1.000  O
  O25      1.0000 0.46290  0.38070  0.81790  Biso   1.000  O
  O26      1.0000 0.51810  0.25270  0.94540  Biso   1.000  O
  O27      1.0000 0.20390  0.42100  0.42850  Biso   1.000  O
  O28      1.0000 0.56500  0.69840  0.42600  Biso   1.000  O
  O29      1.0000 0.77220  0.06530  0.44250  Biso   1.000  O
  O30      1.0000 0.45970  0.77840  0.41930  Biso   1.000  O
  O31      1.0000 0.06810  0.42270  0.49510  Biso   1.000  O
  O32      1.0000 0.11350  0.87840  0.71790  Biso   1.000  O
  O33      1.0000 0.09230  0.64610  0.69000  Biso   1.000  O
  O34      1.0000 0.99380  0.28120  0.69940  Biso   1.000  O
  O35      1.0000 0.09810  0.24080  0.62460  Biso   1.000  O
  O36      1.0000 0.93640  0.64250  0.71910  Biso   1.000  O
  O37      1.0000 0.91150  0.08290  0.51440  Biso   1.000  O
  O38      1.0000 0.96290  0.88070  0.68210  Biso   1.000  O
  O39      1.0000 0.01810  0.75270  0.55460  Biso   1.000  O
  O40      1.0000 0.29610  0.07900  0.92850  Biso   1.000  O
  O41      1.0000 0.93500  0.80160  0.92600  Biso   1.000  O
  O42      1.0000 0.72780  0.43470  0.94250  Biso   1.000  O
  O43      1.0000 0.04030  0.72160  0.91930  Biso   1.000  O
  O44      1.0000 0.43190  0.07730  0.99510  Biso   1.000  O
  O45      1.0000 0.38650  0.62160  0.21790  Biso   1.000  O
  O46      1.0000 0.40770  0.85390  0.19000  Biso   1.000  O
  O47      1.0000 0.50620  0.21880  0.19940  Biso   1.000  O
  O48      1.0000 0.40190  0.25920  0.12460  Biso   1.000  O
  O49      1.0000 0.56360  0.85750  0.21910  Biso   1.000  O
  O50      1.0000 0.58850  0.41710  0.01440  Biso   1.000  O
  O51      1.0000 0.53710  0.61930  0.18210  Biso   1.000  O
  O52      1.0000 0.48190  0.74730  0.05460  Biso   1.000  O
