data_image0
_cell_length_a       14.848
_cell_length_b       17.664
_cell_length_c       18.129
_cell_angle_alpha    112.14
_cell_angle_beta     90
_cell_angle_gamma    90

_symmetry_space_group_name_H-M    P 1
_symmetry_int_tables_number       1

loop_
  _symmetry_equiv_pos_as_xyz
  'x, y, z'

loop_
  _atom_site_label
  _atom_site_occupancy
  _atom_site_fract_x
  _atom_site_fract_y
  _atom_site_fract_z
  _atom_site_thermal_displace_type
  _atom_site_B_iso_or_equiv
  _atom_site_type_symbol
  Zn1      1.0000 0.09820  0.00263  0.16638  Biso   1.000  Zn
  Zn2      1.0000 0.90450  0.99786  0.16684  Biso   1.000  Zn
  Zn3      1.0000 0.50381  0.49962  0.16562  Biso   1.000  Zn
  Zn4      1.0000 0.40153  0.50354  0.00495  Biso   1.000  Zn
  Zn5      1.0000 0.59820  0.49737  0.33362  Biso   1.000  Zn
  Zn6      1.0000 0.40450  0.50214  0.33316  Biso   1.000  Zn
  Zn7      1.0000 0.00381  0.00038  0.33438  Biso   1.000  Zn
  Zn8      1.0000 0.90153  0.99646  0.49505  Biso   1.000  Zn
  Zn9      1.0000 0.90180  0.99737  0.83362  Biso   1.000  Zn
  Zn10     1.0000 0.09550  0.00214  0.83316  Biso   1.000  Zn
  Zn11     1.0000 0.49619  0.50038  0.83438  Biso   1.000  Zn
  Zn12     1.0000 0.59847  0.49646  0.99505  Biso   1.000  Zn
  Zn13     1.0000 0.40180  0.50263  0.66638  Biso   1.000  Zn
  Zn14     1.0000 0.59550  0.49786  0.66684  Biso   1.000  Zn
  Zn15     1.0000 0.99619  0.99962  0.66562  Biso   1.000  Zn
  Zn16     1.0000 0.09847  0.00354  0.50495  Biso   1.000  Zn
  Zn17     1.0000 0.00000  0.00000  0.00000  Biso   1.000  Zn
  Zn18     1.0000 0.50000  0.50000  0.50000  Biso   1.000  Zn
  H1       1.0000 0.99930  0.09010  0.13590  Biso   1.000  H
  H2       1.0000 0.00600  0.90670  0.19550  Biso   1.000  H
  H3       1.0000 0.49960  0.40800  0.02800  Biso   1.000  H
  H4       1.0000 0.88800  0.21780  0.12450  Biso   1.000  H
  H5       1.0000 0.69720  0.17220  0.95350  Biso   1.000  H
  H6       1.0000 0.79950  0.32310  0.21090  Biso   1.000  H
  H7       1.0000 0.60840  0.27760  0.03980  Biso   1.000  H
  H8       1.0000 0.81910  0.83170  0.86330  Biso   1.000  H
  H9       1.0000 0.74790  0.78230  0.05600  Biso   1.000  H
  H10      1.0000 0.75180  0.71050  0.78040  Biso   1.000  H
  H11      1.0000 0.68090  0.66020  0.97330  Biso   1.000  H
  H12      1.0000 0.24880  0.72190  0.11850  Biso   1.000  H
  H13      1.0000 0.40500  0.72440  0.30230  Biso   1.000  H
  H14      1.0000 0.17320  0.83780  0.20280  Biso   1.000  H
  H15      1.0000 0.32280  0.83530  0.38860  Biso   1.000  H
  H16      1.0000 0.49930  0.40990  0.36410  Biso   1.000  H
  H17      1.0000 0.50600  0.59330  0.30450  Biso   1.000  H
  H18      1.0000 0.99960  0.09200  0.47200  Biso   1.000  H
  H19      1.0000 0.38800  0.28220  0.37550  Biso   1.000  H
  H20      1.0000 0.19720  0.32780  0.54650  Biso   1.000  H
  H21      1.0000 0.29950  0.17690  0.28910  Biso   1.000  H
  H22      1.0000 0.10840  0.22240  0.46020  Biso   1.000  H
  H23      1.0000 0.31910  0.66830  0.63670  Biso   1.000  H
  H24      1.0000 0.24790  0.71770  0.44400  Biso   1.000  H
  H25      1.0000 0.25180  0.78950  0.71960  Biso   1.000  H
  H26      1.0000 0.18090  0.83980  0.52670  Biso   1.000  H
  H27      1.0000 0.74880  0.77810  0.38150  Biso   1.000  H
  H28      1.0000 0.90500  0.77560  0.19770  Biso   1.000  H
  H29      1.0000 0.67320  0.66220  0.29720  Biso   1.000  H
  H30      1.0000 0.82280  0.66470  0.11140  Biso   1.000  H
  H31      1.0000 0.00070  0.90990  0.86410  Biso   1.000  H
  H32      1.0000 0.99400  0.09330  0.80450  Biso   1.000  H
  H33      1.0000 0.50040  0.59200  0.97200  Biso   1.000  H
  H34      1.0000 0.11200  0.78220  0.87550  Biso   1.000  H
  H35      1.0000 0.30280  0.82780  0.04650  Biso   1.000  H
  H36      1.0000 0.20050  0.67690  0.78910  Biso   1.000  H
  H37      1.0000 0.39160  0.72240  0.96020  Biso   1.000  H
  H38      1.0000 0.18090  0.16830  0.13670  Biso   1.000  H
  H39      1.0000 0.25210  0.21770  0.94400  Biso   1.000  H
  H40      1.0000 0.24820  0.28950  0.21960  Biso   1.000  H
  H41      1.0000 0.31910  0.33980  0.02670  Biso   1.000  H
  H42      1.0000 0.75120  0.27810  0.88150  Biso   1.000  H
  H43      1.0000 0.59500  0.27560  0.69770  Biso   1.000  H
  H44      1.0000 0.82680  0.16220  0.79720  Biso   1.000  H
  H45      1.0000 0.67720  0.16470  0.61140  Biso   1.000  H
  H46      1.0000 0.50070  0.59010  0.63590  Biso   1.000  H
  H47      1.0000 0.49400  0.40670  0.69550  Biso   1.000  H
  H48      1.0000 0.00040  0.90800  0.52800  Biso   1.000  H
  H49      1.0000 0.61200  0.71780  0.62450  Biso   1.000  H
  H50      1.0000 0.80280  0.67220  0.45350  Biso   1.000  H
  H51      1.0000 0.70050  0.82310  0.71090  Biso   1.000  H
  H52      1.0000 0.89160  0.77760  0.53980  Biso   1.000  H
  H53      1.0000 0.68090  0.33170  0.36330  Biso   1.000  H
  H54      1.0000 0.75210  0.28230  0.55600  Biso   1.000  H
  H55      1.0000 0.74820  0.21050  0.28040  Biso   1.000  H
  H56      1.0000 0.81910  0.16020  0.47330  Biso   1.000  H
  H57      1.0000 0.25120  0.22190  0.61850  Biso   1.000  H
  H58      1.0000 0.09500  0.22440  0.80230  Biso   1.000  H
  H59      1.0000 0.32680  0.33780  0.70280  Biso   1.000  H
  H60      1.0000 0.17720  0.33530  0.88860  Biso   1.000  H
  C1       1.0000 0.85689  0.11626  0.97602  Biso   1.000  C
  C2       1.0000 0.80043  0.18442  0.03091  Biso   1.000  C
  C3       1.0000 0.83112  0.22972  0.10744  Biso   1.000  C
  C4       1.0000 0.71775  0.20276  0.00601  Biso   1.000  C
  C5       1.0000 0.77857  0.29215  0.15867  Biso   1.000  C
  C6       1.0000 0.66492  0.26526  0.05712  Biso   1.000  C
  C7       1.0000 0.69508  0.30966  0.13387  Biso   1.000  C
  C8       1.0000 0.63821  0.37688  0.18949  Biso   1.000  C
  C9       1.0000 0.83645  0.89533  0.02061  Biso   1.000  C
  C10      1.0000 0.79024  0.81856  0.96762  Biso   1.000  C
  C11      1.0000 0.79106  0.79695  0.88564  Biso   1.000  C
  C12      1.0000 0.74881  0.76740  0.99994  Biso   1.000  C
  C13      1.0000 0.75122  0.72498  0.83651  Biso   1.000  C
  C14      1.0000 0.70893  0.69500  0.95095  Biso   1.000  C
  C15      1.0000 0.71004  0.67345  0.86888  Biso   1.000  C
  C16      1.0000 0.66401  0.59697  0.81562  Biso   1.000  C
  C17      1.0000 0.37863  0.63370  0.14897  Biso   1.000  C
  C18      1.0000 0.33282  0.71080  0.20239  Biso   1.000  C
  C19      1.0000 0.26434  0.74524  0.17332  Biso   1.000  C
  C20      1.0000 0.35618  0.74598  0.28253  Biso   1.000  C
  C21      1.0000 0.21848  0.81341  0.22357  Biso   1.000  C
  C22      1.0000 0.30810  0.81262  0.33358  Biso   1.000  C
  C23      1.0000 0.23864  0.84628  0.30450  Biso   1.000  C
  C24      1.0000 0.18081  0.91453  0.35876  Biso   1.000  C
  C25      1.0000 0.35689  0.38374  0.52398  Biso   1.000  C
  C26      1.0000 0.30043  0.31558  0.46909  Biso   1.000  C
  C27      1.0000 0.33112  0.27028  0.39256  Biso   1.000  C
  C28      1.0000 0.21775  0.29724  0.49399  Biso   1.000  C
  C29      1.0000 0.27857  0.20785  0.34133  Biso   1.000  C
  C30      1.0000 0.16492  0.23474  0.44288  Biso   1.000  C
  C31      1.0000 0.19508  0.19034  0.36613  Biso   1.000  C
  C32      1.0000 0.13821  0.12312  0.31051  Biso   1.000  C
  C33      1.0000 0.33645  0.60467  0.47939  Biso   1.000  C
  C34      1.0000 0.29024  0.68144  0.53238  Biso   1.000  C
  C35      1.0000 0.29106  0.70305  0.61436  Biso   1.000  C
  C36      1.0000 0.24881  0.73260  0.50006  Biso   1.000  C
  C37      1.0000 0.25122  0.77502  0.66349  Biso   1.000  C
  C38      1.0000 0.20893  0.80500  0.54905  Biso   1.000  C
  C39      1.0000 0.21004  0.82655  0.63112  Biso   1.000  C
  C40      1.0000 0.16401  0.90303  0.68438  Biso   1.000  C
  C41      1.0000 0.87863  0.86630  0.35103  Biso   1.000  C
  C42      1.0000 0.83282  0.78920  0.29761  Biso   1.000  C
  C43      1.0000 0.76434  0.75476  0.32668  Biso   1.000  C
  C44      1.0000 0.85618  0.75402  0.21747  Biso   1.000  C
  C45      1.0000 0.71848  0.68659  0.27643  Biso   1.000  C
  C46      1.0000 0.80810  0.68738  0.16642  Biso   1.000  C
  C47      1.0000 0.73864  0.65372  0.19550  Biso   1.000  C
  C48      1.0000 0.68081  0.58547  0.14124  Biso   1.000  C
  C49      1.0000 0.14311  0.88374  0.02398  Biso   1.000  C
  C50      1.0000 0.19957  0.81558  0.96909  Biso   1.000  C
  C51      1.0000 0.16888  0.77028  0.89256  Biso   1.000  C
  C52      1.0000 0.28225  0.79724  0.99399  Biso   1.000  C
  C53      1.0000 0.22143  0.70785  0.84133  Biso   1.000  C
  C54      1.0000 0.33508  0.73474  0.94288  Biso   1.000  C
  C55      1.0000 0.30492  0.69034  0.86613  Biso   1.000  C
  C56      1.0000 0.36179  0.62312  0.81051  Biso   1.000  C
  C57      1.0000 0.16355  0.10467  0.97939  Biso   1.000  C
  C58      1.0000 0.20976  0.18144  0.03238  Biso   1.000  C
  C59      1.0000 0.20894  0.20305  0.11436  Biso   1.000  C
  C60      1.0000 0.25119  0.23260  0.00006  Biso   1.000  C
  C61      1.0000 0.24878  0.27502  0.16349  Biso   1.000  C
  C62      1.0000 0.29107  0.30500  0.04905  Biso   1.000  C
  C63      1.0000 0.28996  0.32655  0.13112  Biso   1.000  C
  C64      1.0000 0.33599  0.40303  0.18438  Biso   1.000  C
  C65      1.0000 0.62137  0.36630  0.85103  Biso   1.000  C
  C66      1.0000 0.66718  0.28920  0.79761  Biso   1.000  C
  C67      1.0000 0.73566  0.25476  0.82668  Biso   1.000  C
  C68      1.0000 0.64382  0.25402  0.71747  Biso   1.000  C
  C69      1.0000 0.78152  0.18659  0.77643  Biso   1.000  C
  C70      1.0000 0.69190  0.18738  0.66642  Biso   1.000  C
  C71      1.0000 0.76136  0.15372  0.69550  Biso   1.000  C
  C72      1.0000 0.81919  0.08547  0.64124  Biso   1.000  C
  C73      1.0000 0.64311  0.61626  0.47602  Biso   1.000  C
  C74      1.0000 0.69957  0.68442  0.53091  Biso   1.000  C
  C75      1.0000 0.66888  0.72972  0.60744  Biso   1.000  C
  C76      1.0000 0.78225  0.70276  0.50601  Biso   1.000  C
  C77      1.0000 0.72143  0.79215  0.65867  Biso   1.000  C
  C78      1.0000 0.83508  0.76526  0.55712  Biso   1.000  C
  C79      1.0000 0.80492  0.80966  0.63387  Biso   1.000  C
  C80      1.0000 0.86179  0.87688  0.68949  Biso   1.000  C
  C81      1.0000 0.66355  0.39533  0.52061  Biso   1.000  C
  C82      1.0000 0.70976  0.31856  0.46762  Biso   1.000  C
  C83      1.0000 0.70894  0.29695  0.38564  Biso   1.000  C
  C84      1.0000 0.75119  0.26740  0.49994  Biso   1.000  C
  C85      1.0000 0.74878  0.22498  0.33651  Biso   1.000  C
  C86      1.0000 0.79107  0.19500  0.45095  Biso   1.000  C
  C87      1.0000 0.78996  0.17345  0.36888  Biso   1.000  C
  C88      1.0000 0.83599  0.09697  0.31562  Biso   1.000  C
  C89      1.0000 0.12137  0.13370  0.64897  Biso   1.000  C
  C90      1.0000 0.16718  0.21080  0.70239  Biso   1.000  C
  C91      1.0000 0.23566  0.24524  0.67332  Biso   1.000  C
  C92      1.0000 0.14382  0.24598  0.78253  Biso   1.000  C
  C93      1.0000 0.28152  0.31341  0.72357  Biso   1.000  C
  C94      1.0000 0.19190  0.31262  0.83358  Biso   1.000  C
  C95      1.0000 0.26136  0.34628  0.80450  Biso   1.000  C
  C96      1.0000 0.31919  0.41453  0.85876  Biso   1.000  C
  O1       1.0000 0.99809  0.04798  0.12152  Biso   1.000  O
  O2       1.0000 0.00315  0.95252  0.21204  Biso   1.000  O
  O3       1.0000 0.50093  0.45175  0.04339  Biso   1.000  O
  O4       1.0000 0.93346  0.10457  0.99873  Biso   1.000  O
  O5       1.0000 0.82314  0.07518  0.90863  Biso   1.000  O
  O6       1.0000 0.56211  0.39040  0.16706  Biso   1.000  O
  O7       1.0000 0.67160  0.41525  0.25793  Biso   1.000  O
  O8       1.0000 0.87357  0.93952  0.99019  Biso   1.000  O
  O9       1.0000 0.83504  0.90909  0.09483  Biso   1.000  O
  O10      1.0000 0.62783  0.55129  0.84500  Biso   1.000  O
  O11      1.0000 0.66465  0.58467  0.74179  Biso   1.000  O
  O12      1.0000 0.45127  0.61306  0.17115  Biso   1.000  O
  O13      1.0000 0.33888  0.59391  0.08388  Biso   1.000  O
  O14      1.0000 0.13499  0.95416  0.32867  Biso   1.000  O
  O15      1.0000 0.18138  0.92562  0.43260  Biso   1.000  O
  O16      1.0000 0.49809  0.45202  0.37848  Biso   1.000  O
  O17      1.0000 0.50315  0.54748  0.28796  Biso   1.000  O
  O18      1.0000 0.00093  0.04825  0.45661  Biso   1.000  O
  O19      1.0000 0.43346  0.39543  0.50127  Biso   1.000  O
  O20      1.0000 0.32314  0.42482  0.59137  Biso   1.000  O
  O21      1.0000 0.06211  0.10960  0.33294  Biso   1.000  O
  O22      1.0000 0.17160  0.08475  0.24207  Biso   1.000  O
  O23      1.0000 0.37357  0.56048  0.50981  Biso   1.000  O
  O24      1.0000 0.33504  0.59091  0.40517  Biso   1.000  O
  O25      1.0000 0.12783  0.94871  0.65500  Biso   1.000  O
  O26      1.0000 0.16465  0.91533  0.75821  Biso   1.000  O
  O27      1.0000 0.95127  0.88694  0.32885  Biso   1.000  O
  O28      1.0000 0.83888  0.90609  0.41612  Biso   1.000  O
  O29      1.0000 0.63499  0.54584  0.17133  Biso   1.000  O
  O30      1.0000 0.68138  0.57438  0.06740  Biso   1.000  O
  O31      1.0000 0.00191  0.95202  0.87848  Biso   1.000  O
  O32      1.0000 0.99685  0.04748  0.78796  Biso   1.000  O
  O33      1.0000 0.49907  0.54825  0.95661  Biso   1.000  O
  O34      1.0000 0.06654  0.89543  0.00127  Biso   1.000  O
  O35      1.0000 0.17686  0.92482  0.09137  Biso   1.000  O
  O36      1.0000 0.43789  0.60960  0.83294  Biso   1.000  O
  O37      1.0000 0.32840  0.58475  0.74207  Biso   1.000  O
  O38      1.0000 0.12643  0.06048  0.00981  Biso   1.000  O
  O39      1.0000 0.16496  0.09091  0.90517  Biso   1.000  O
  O40      1.0000 0.37217  0.44871  0.15500  Biso   1.000  O
  O41      1.0000 0.33535  0.41533  0.25821  Biso   1.000  O
  O42      1.0000 0.54873  0.38694  0.82885  Biso   1.000  O
  O43      1.0000 0.66112  0.40609  0.91612  Biso   1.000  O
  O44      1.0000 0.86501  0.04584  0.67133  Biso   1.000  O
  O45      1.0000 0.81862  0.07438  0.56740  Biso   1.000  O
  O46      1.0000 0.50191  0.54798  0.62152  Biso   1.000  O
  O47      1.0000 0.49685  0.45252  0.71204  Biso   1.000  O
  O48      1.0000 0.99907  0.95175  0.54339  Biso   1.000  O
  O49      1.0000 0.56654  0.60457  0.49873  Biso   1.000  O
  O50      1.0000 0.67686  0.57518  0.40863  Biso   1.000  O
  O51      1.0000 0.93789  0.89040  0.66706  Biso   1.000  O
  O52      1.0000 0.82840  0.91525  0.75793  Biso   1.000  O
  O53      1.0000 0.62643  0.43952  0.49019  Biso   1.000  O
  O54      1.0000 0.66496  0.40909  0.59483  Biso   1.000  O
  O55      1.0000 0.87217  0.05129  0.34500  Biso   1.000  O
  O56      1.0000 0.83535  0.08467  0.24179  Biso   1.000  O
  O57      1.0000 0.04873  0.11306  0.67115  Biso   1.000  O
  O58      1.0000 0.16112  0.09391  0.58388  Biso   1.000  O
  O59      1.0000 0.36501  0.45416  0.82867  Biso   1.000  O
  O60      1.0000 0.31862  0.42562  0.93260  Biso   1.000  O
