data_image0
_cell_length_a       9.198
_cell_length_b       9.33
_cell_length_c       9.636
_cell_angle_alpha    90
_cell_angle_beta     118.48
_cell_angle_gamma    90

_symmetry_space_group_name_H-M    P 1
_symmetry_int_tables_number       1

loop_
  _symmetry_equiv_pos_as_xyz
  'x, y, z'

loop_
  _atom_site_label
  _atom_site_occupancy
  _atom_site_fract_x
  _atom_site_fract_y
  _atom_site_fract_z
  _atom_site_thermal_displace_type
  _atom_site_B_iso_or_equiv
  _atom_site_type_symbol
  Zn1      1.0000 0.91601  0.44079  0.13712  Biso   1.000  Zn
  Zn2      1.0000 0.08399  0.94079  0.86288  Biso   1.000  Zn
  H1       1.0000 0.63510  0.50880  0.07000  Biso   1.000  H
  H2       1.0000 0.66310  0.36690  0.13780  Biso   1.000  H
  H3       1.0000 0.03520  0.74360  0.09290  Biso   1.000  H
  H4       1.0000 0.82730  0.57150  0.52940  Biso   1.000  H
  H5       1.0000 0.85120  0.73800  0.54310  Biso   1.000  H
  H6       1.0000 0.10580  0.43210  0.65620  Biso   1.000  H
  H7       1.0000 0.83800  0.44800  0.77240  Biso   1.000  H
  H8       1.0000 0.12860  0.71910  0.62420  Biso   1.000  H
  H9       1.0000 0.33070  0.28860  0.78540  Biso   1.000  H
  H10      1.0000 0.36340  0.34940  0.94970  Biso   1.000  H
  H11      1.0000 0.58250  0.41410  0.83810  Biso   1.000  H
  H12      1.0000 0.59530  0.26440  0.91500  Biso   1.000  H
  H13      1.0000 0.36490  0.00880  0.93000  Biso   1.000  H
  H14      1.0000 0.33690  0.86690  0.86220  Biso   1.000  H
  H15      1.0000 0.96480  0.24360  0.90710  Biso   1.000  H
  H16      1.0000 0.17270  0.07150  0.47060  Biso   1.000  H
  H17      1.0000 0.14880  0.23800  0.45690  Biso   1.000  H
  H18      1.0000 0.89420  0.93210  0.34380  Biso   1.000  H
  H19      1.0000 0.16200  0.94800  0.22760  Biso   1.000  H
  H20      1.0000 0.87140  0.21910  0.37580  Biso   1.000  H
  H21      1.0000 0.66930  0.78860  0.21460  Biso   1.000  H
  H22      1.0000 0.63660  0.84940  0.05030  Biso   1.000  H
  H23      1.0000 0.41750  0.91410  0.16190  Biso   1.000  H
  H24      1.0000 0.40470  0.76440  0.08500  Biso   1.000  H
  C1       1.0000 0.99400  0.69490  0.99730  Biso   1.000  C
  C2       1.0000 0.90230  0.64750  0.59110  Biso   1.000  C
  C3       1.0000 0.88610  0.53360  0.82260  Biso   1.000  C
  C4       1.0000 0.06310  0.63160  0.58250  Biso   1.000  C
  C5       1.0000 0.01490  0.61830  0.40830  Biso   1.000  C
  C6       1.0000 0.30840  0.50910  0.78350  Biso   1.000  C
  C7       1.0000 0.92330  0.64240  0.75540  Biso   1.000  C
  C8       1.0000 0.38300  0.36540  0.86100  Biso   1.000  C
  C9       1.0000 0.56360  0.36340  0.91590  Biso   1.000  C
  C10      1.0000 0.00600  0.19490  0.00270  Biso   1.000  C
  C11      1.0000 0.09770  0.14750  0.40890  Biso   1.000  C
  C12      1.0000 0.11390  0.03360  0.17740  Biso   1.000  C
  C13      1.0000 0.93690  0.13160  0.41750  Biso   1.000  C
  C14      1.0000 0.98510  0.11830  0.59170  Biso   1.000  C
  C15      1.0000 0.69160  0.00910  0.21650  Biso   1.000  C
  C16      1.0000 0.07670  0.14240  0.24460  Biso   1.000  C
  C17      1.0000 0.61700  0.86540  0.13900  Biso   1.000  C
  C18      1.0000 0.43640  0.86340  0.08410  Biso   1.000  C
  N1       1.0000 0.67300  0.42090  0.06540  Biso   1.000  N
  N2       1.0000 0.99500  0.74990  0.87180  Biso   1.000  N
  N3       1.0000 0.15770  0.51240  0.67570  Biso   1.000  N
  N4       1.0000 0.92880  0.56590  0.97640  Biso   1.000  N
  N5       1.0000 0.32700  0.92090  0.93460  Biso   1.000  N
  N6       1.0000 0.00500  0.24990  0.12820  Biso   1.000  N
  N7       1.0000 0.84230  0.01240  0.32430  Biso   1.000  N
  N8       1.0000 0.07120  0.06590  0.02360  Biso   1.000  N
  O1       1.0000 0.00670  0.49360  0.35660  Biso   1.000  O
  O2       1.0000 0.98820  0.72660  0.32910  Biso   1.000  O
  O3       1.0000 0.38670  0.62730  0.83040  Biso   1.000  O
  O4       1.0000 0.99330  0.99360  0.64340  Biso   1.000  O
  O5       1.0000 0.01180  0.22660  0.67090  Biso   1.000  O
  O6       1.0000 0.61330  0.12730  0.16960  Biso   1.000  O
