data_image0
_cell_length_a       18.6273
_cell_length_b       18.6273
_cell_length_c       18.6273
_cell_angle_alpha    60
_cell_angle_beta     60
_cell_angle_gamma    60

_symmetry_space_group_name_H-M    P 1
_symmetry_int_tables_number       1

loop_
  _symmetry_equiv_pos_as_xyz
  'x, y, z'

loop_
  _atom_site_label
  _atom_site_occupancy
  _atom_site_fract_x
  _atom_site_fract_y
  _atom_site_fract_z
  _atom_site_thermal_displace_type
  _atom_site_B_iso_or_equiv
  _atom_site_type_symbol
  Cu1      1.0000 0.57057  0.00000  0.42943  Biso   1.000  Cu
  Cu2      1.0000 0.00000  0.57057  0.00000  Biso   1.000  Cu
  Cu3      1.0000 0.42943  0.00000  0.57057  Biso   1.000  Cu
  Cu4      1.0000 0.00000  0.42943  0.00000  Biso   1.000  Cu
  Cu5      1.0000 0.57057  0.42943  0.00000  Biso   1.000  Cu
  Cu6      1.0000 0.00000  0.00000  0.42943  Biso   1.000  Cu
  Cu7      1.0000 0.42943  0.57057  0.00000  Biso   1.000  Cu
  Cu8      1.0000 0.00000  0.00000  0.57057  Biso   1.000  Cu
  Cu9      1.0000 0.57057  0.00000  0.00000  Biso   1.000  Cu
  Cu10     1.0000 0.00000  0.42943  0.57057  Biso   1.000  Cu
  Cu11     1.0000 0.42943  1.00000  0.00000  Biso   1.000  Cu
  Cu12     1.0000 0.00000  0.57057  0.42943  Biso   1.000  Cu
  H1       1.0000 0.72800  0.72800  0.51160  Biso   1.000  H
  H2       1.0000 0.72800  0.72800  0.03240  Biso   1.000  H
  H3       1.0000 0.51160  0.03240  0.72800  Biso   1.000  H
  H4       1.0000 0.03240  0.51160  0.72800  Biso   1.000  H
  H5       1.0000 0.72800  0.51160  0.03240  Biso   1.000  H
  H6       1.0000 0.72800  0.03240  0.51160  Biso   1.000  H
  H7       1.0000 0.51160  0.72800  0.72800  Biso   1.000  H
  H8       1.0000 0.03240  0.72800  0.72800  Biso   1.000  H
  H9       1.0000 0.72800  0.03240  0.72800  Biso   1.000  H
  H10      1.0000 0.72800  0.51160  0.72800  Biso   1.000  H
  H11      1.0000 0.51160  0.72800  0.03240  Biso   1.000  H
  H12      1.0000 0.03240  0.72800  0.51160  Biso   1.000  H
  H13      1.0000 0.27200  0.27200  0.48840  Biso   1.000  H
  H14      1.0000 0.27200  0.27200  0.96760  Biso   1.000  H
  H15      1.0000 0.96760  0.48840  0.27200  Biso   1.000  H
  H16      1.0000 0.48840  0.96760  0.27200  Biso   1.000  H
  H17      1.0000 0.48840  0.27200  0.96760  Biso   1.000  H
  H18      1.0000 0.96760  0.27200  0.48840  Biso   1.000  H
  H19      1.0000 0.27200  0.48840  0.27200  Biso   1.000  H
  H20      1.0000 0.27200  0.96760  0.27200  Biso   1.000  H
  H21      1.0000 0.96760  0.27200  0.27200  Biso   1.000  H
  H22      1.0000 0.48840  0.27200  0.27200  Biso   1.000  H
  H23      1.0000 0.27200  0.48840  0.96760  Biso   1.000  H
  H24      1.0000 0.27200  0.96760  0.48840  Biso   1.000  H
  C1       1.0000 0.25700  0.96900  0.38700  Biso   1.000  C
  C2       1.0000 0.96900  0.25700  0.38700  Biso   1.000  C
  C3       1.0000 0.38700  0.38700  0.25700  Biso   1.000  C
  C4       1.0000 0.38700  0.38700  0.96900  Biso   1.000  C
  C5       1.0000 0.25700  0.38700  0.38700  Biso   1.000  C
  C6       1.0000 0.96900  0.38700  0.38700  Biso   1.000  C
  C7       1.0000 0.38700  0.25700  0.96900  Biso   1.000  C
  C8       1.0000 0.38700  0.96900  0.25700  Biso   1.000  C
  C9       1.0000 0.25700  0.38700  0.96900  Biso   1.000  C
  C10      1.0000 0.96900  0.38700  0.25700  Biso   1.000  C
  C11      1.0000 0.38700  0.96900  0.38700  Biso   1.000  C
  C12      1.0000 0.38700  0.25700  0.38700  Biso   1.000  C
  C13      1.0000 0.03100  0.74300  0.61300  Biso   1.000  C
  C14      1.0000 0.74300  0.03100  0.61300  Biso   1.000  C
  C15      1.0000 0.61300  0.61300  0.74300  Biso   1.000  C
  C16      1.0000 0.61300  0.61300  0.03100  Biso   1.000  C
  C17      1.0000 0.61300  0.74300  0.61300  Biso   1.000  C
  C18      1.0000 0.61300  0.03100  0.61300  Biso   1.000  C
  C19      1.0000 0.74300  0.61300  0.03100  Biso   1.000  C
  C20      1.0000 0.03100  0.61300  0.74300  Biso   1.000  C
  C21      1.0000 0.61300  0.74300  0.03100  Biso   1.000  C
  C22      1.0000 0.61300  0.03100  0.74300  Biso   1.000  C
  C23      1.0000 0.03100  0.61300  0.61300  Biso   1.000  C
  C24      1.0000 0.74300  0.61300  0.61300  Biso   1.000  C
  C25      1.0000 0.56870  0.56870  0.83770  Biso   1.000  C
  C26      1.0000 0.56870  0.56870  0.02490  Biso   1.000  C
  C27      1.0000 0.83770  0.02490  0.56870  Biso   1.000  C
  C28      1.0000 0.02490  0.83770  0.56870  Biso   1.000  C
  C29      1.0000 0.56870  0.83770  0.02490  Biso   1.000  C
  C30      1.0000 0.56870  0.02490  0.83770  Biso   1.000  C
  C31      1.0000 0.83770  0.56870  0.56870  Biso   1.000  C
  C32      1.0000 0.02490  0.56870  0.56870  Biso   1.000  C
  C33      1.0000 0.56870  0.02490  0.56870  Biso   1.000  C
  C34      1.0000 0.56870  0.83770  0.56870  Biso   1.000  C
  C35      1.0000 0.83770  0.56870  0.02490  Biso   1.000  C
  C36      1.0000 0.02490  0.56870  0.83770  Biso   1.000  C
  C37      1.0000 0.43130  0.43130  0.16230  Biso   1.000  C
  C38      1.0000 0.43130  0.43130  0.97510  Biso   1.000  C
  C39      1.0000 0.97510  0.16230  0.43130  Biso   1.000  C
  C40      1.0000 0.16230  0.97510  0.43130  Biso   1.000  C
  C41      1.0000 0.16230  0.43130  0.97510  Biso   1.000  C
  C42      1.0000 0.97510  0.43130  0.16230  Biso   1.000  C
  C43      1.0000 0.43130  0.16230  0.43130  Biso   1.000  C
  C44      1.0000 0.43130  0.97510  0.43130  Biso   1.000  C
  C45      1.0000 0.97510  0.43130  0.43130  Biso   1.000  C
  C46      1.0000 0.16230  0.43130  0.43130  Biso   1.000  C
  C47      1.0000 0.43130  0.16230  0.97510  Biso   1.000  C
  C48      1.0000 0.43130  0.97510  0.16230  Biso   1.000  C
  C49      1.0000 0.30060  0.96840  0.43040  Biso   1.000  C
  C50      1.0000 0.96840  0.30060  0.30060  Biso   1.000  C
  C51      1.0000 0.43040  0.30060  0.30060  Biso   1.000  C
  C52      1.0000 0.30060  0.43040  0.96840  Biso   1.000  C
  C53      1.0000 0.30060  0.43040  0.30060  Biso   1.000  C
  C54      1.0000 0.96840  0.30060  0.43040  Biso   1.000  C
  C55      1.0000 0.43040  0.30060  0.96840  Biso   1.000  C
  C56      1.0000 0.30060  0.96840  0.30060  Biso   1.000  C
  C57      1.0000 0.30060  0.30060  0.96840  Biso   1.000  C
  C58      1.0000 0.96840  0.43040  0.30060  Biso   1.000  C
  C59      1.0000 0.43040  0.96840  0.30060  Biso   1.000  C
  C60      1.0000 0.30060  0.30060  0.43040  Biso   1.000  C
  C61      1.0000 0.03160  0.69940  0.56960  Biso   1.000  C
  C62      1.0000 0.69940  0.03160  0.69940  Biso   1.000  C
  C63      1.0000 0.69940  0.56960  0.69940  Biso   1.000  C
  C64      1.0000 0.56960  0.69940  0.03160  Biso   1.000  C
  C65      1.0000 0.56960  0.69940  0.69940  Biso   1.000  C
  C66      1.0000 0.69940  0.03160  0.56960  Biso   1.000  C
  C67      1.0000 0.69940  0.56960  0.03160  Biso   1.000  C
  C68      1.0000 0.03160  0.69940  0.69940  Biso   1.000  C
  C69      1.0000 0.69940  0.69940  0.03160  Biso   1.000  C
  C70      1.0000 0.56960  0.03160  0.69940  Biso   1.000  C
  C71      1.0000 0.03160  0.56960  0.69940  Biso   1.000  C
  C72      1.0000 0.69940  0.69940  0.56960  Biso   1.000  C
  O1       1.0000 0.61201  0.49247  0.87425  Biso   1.000  O
  O2       1.0000 0.49247  0.61201  0.02127  Biso   1.000  O
  O3       1.0000 0.87425  0.02127  0.61201  Biso   1.000  O
  O4       1.0000 0.02127  0.87425  0.49247  Biso   1.000  O
  O5       1.0000 0.61201  0.87425  0.02127  Biso   1.000  O
  O6       1.0000 0.49247  0.02127  0.87425  Biso   1.000  O
  O7       1.0000 0.87425  0.61201  0.49247  Biso   1.000  O
  O8       1.0000 0.02127  0.49247  0.61201  Biso   1.000  O
  O9       1.0000 0.61201  0.02127  0.49247  Biso   1.000  O
  O10      1.0000 0.49247  0.87425  0.61201  Biso   1.000  O
  O11      1.0000 0.87425  0.49247  0.02127  Biso   1.000  O
  O12      1.0000 0.02127  0.61201  0.87425  Biso   1.000  O
  O13      1.0000 0.50753  0.38799  0.12575  Biso   1.000  O
  O14      1.0000 0.38799  0.50753  0.97873  Biso   1.000  O
  O15      1.0000 0.97873  0.12575  0.38799  Biso   1.000  O
  O16      1.0000 0.12575  0.97873  0.50753  Biso   1.000  O
  O17      1.0000 0.12575  0.38799  0.97873  Biso   1.000  O
  O18      1.0000 0.97873  0.50753  0.12575  Biso   1.000  O
  O19      1.0000 0.38799  0.12575  0.50753  Biso   1.000  O
  O20      1.0000 0.50753  0.97873  0.38799  Biso   1.000  O
  O21      1.0000 0.97873  0.38799  0.50753  Biso   1.000  O
  O22      1.0000 0.12575  0.50753  0.38799  Biso   1.000  O
  O23      1.0000 0.50753  0.12575  0.97873  Biso   1.000  O
  O24      1.0000 0.38799  0.97873  0.12575  Biso   1.000  O
  O25      1.0000 0.38799  0.50753  0.12575  Biso   1.000  O
  O26      1.0000 0.50753  0.38799  0.97873  Biso   1.000  O
  O27      1.0000 0.12575  0.97873  0.38799  Biso   1.000  O
  O28      1.0000 0.97873  0.12575  0.50753  Biso   1.000  O
  O29      1.0000 0.38799  0.12575  0.97873  Biso   1.000  O
  O30      1.0000 0.50753  0.97873  0.12575  Biso   1.000  O
  O31      1.0000 0.12575  0.38799  0.50753  Biso   1.000  O
  O32      1.0000 0.97873  0.50753  0.38799  Biso   1.000  O
  O33      1.0000 0.38799  0.97873  0.50753  Biso   1.000  O
  O34      1.0000 0.50753  0.12575  0.38799  Biso   1.000  O
  O35      1.0000 0.12575  0.50753  0.97873  Biso   1.000  O
  O36      1.0000 0.97873  0.38799  0.12575  Biso   1.000  O
  O37      1.0000 0.49247  0.61201  0.87425  Biso   1.000  O
  O38      1.0000 0.61201  0.49247  0.02127  Biso   1.000  O
  O39      1.0000 0.02127  0.87425  0.61201  Biso   1.000  O
  O40      1.0000 0.87425  0.02127  0.49247  Biso   1.000  O
  O41      1.0000 0.87425  0.61201  0.02127  Biso   1.000  O
  O42      1.0000 0.02127  0.49247  0.87425  Biso   1.000  O
  O43      1.0000 0.61201  0.87425  0.49247  Biso   1.000  O
  O44      1.0000 0.49247  0.02127  0.61201  Biso   1.000  O
  O45      1.0000 0.02127  0.61201  0.49247  Biso   1.000  O
  O46      1.0000 0.87425  0.49247  0.61201  Biso   1.000  O
  O47      1.0000 0.49247  0.87425  0.02127  Biso   1.000  O
  O48      1.0000 0.61201  0.02127  0.87425  Biso   1.000  O
  O49      1.0000 0.31320  0.00000  0.68680  Biso   1.000  O
  O50      1.0000 0.00000  0.31320  0.00000  Biso   1.000  O
  O51      1.0000 0.68680  1.00000  0.31320  Biso   1.000  O
  O52      1.0000 0.00000  0.68680  0.00000  Biso   1.000  O
  O53      1.0000 0.31320  0.68680  0.00000  Biso   1.000  O
  O54      1.0000 0.00000  0.00000  0.68680  Biso   1.000  O
  O55      1.0000 0.68680  0.31320  0.00000  Biso   1.000  O
  O56      1.0000 0.00000  0.00000  0.31320  Biso   1.000  O
  O57      1.0000 0.31320  1.00000  0.00000  Biso   1.000  O
  O58      1.0000 0.00000  0.68680  0.31320  Biso   1.000  O
  O59      1.0000 0.68680  0.00000  0.00000  Biso   1.000  O
  O60      1.0000 0.00000  0.31320  0.68680  Biso   1.000  O
