data_image0
_cell_length_a       7.1409
_cell_length_b       7.1409
_cell_length_c       7.6068
_cell_angle_alpha    90
_cell_angle_beta     90
_cell_angle_gamma    90

_symmetry_space_group_name_H-M    P 1
_symmetry_int_tables_number       1

loop_
  _symmetry_equiv_pos_as_xyz
  'x, y, z'

loop_
  _atom_site_label
  _atom_site_occupancy
  _atom_site_fract_x
  _atom_site_fract_y
  _atom_site_fract_z
  _atom_site_thermal_displace_type
  _atom_site_B_iso_or_equiv
  _atom_site_type_symbol
  Zn1      1.0000 0.50000  0.50000  0.50000  Biso   1.000  Zn
  Si1      1.0000 0.50000  0.50000  0.00000  Biso   1.000  Si
  H1       1.0000 0.50000  0.83860  0.75150  Biso   1.000  H
  H2       1.0000 0.50000  0.16140  0.75150  Biso   1.000  H
  H3       1.0000 0.16140  0.50000  0.75150  Biso   1.000  H
  H4       1.0000 0.83860  0.50000  0.75150  Biso   1.000  H
  H5       1.0000 0.50000  0.83860  0.24850  Biso   1.000  H
  H6       1.0000 0.50000  0.16140  0.24850  Biso   1.000  H
  H7       1.0000 0.83860  0.50000  0.24850  Biso   1.000  H
  H8       1.0000 0.16140  0.50000  0.24850  Biso   1.000  H
  C1       1.0000 0.50000  0.90140  0.64450  Biso   1.000  C
  C2       1.0000 0.50000  0.09860  0.64450  Biso   1.000  C
  C3       1.0000 0.09860  0.50000  0.64450  Biso   1.000  C
  C4       1.0000 0.90140  0.50000  0.64450  Biso   1.000  C
  C5       1.0000 0.50000  0.90140  0.35550  Biso   1.000  C
  C6       1.0000 0.50000  0.09860  0.35550  Biso   1.000  C
  C7       1.0000 0.90140  0.50000  0.35550  Biso   1.000  C
  C8       1.0000 0.09860  0.50000  0.35550  Biso   1.000  C
  N1       1.0000 0.50000  0.80420  0.50000  Biso   1.000  N
  N2       1.0000 0.50000  0.19580  0.50000  Biso   1.000  N
  N3       1.0000 0.19580  0.50000  0.50000  Biso   1.000  N
  N4       1.0000 0.80420  0.50000  0.50000  Biso   1.000  N
  F1       1.0000 0.50000  0.50000  0.77040  Biso   1.000  F
  F2       1.0000 0.50000  0.50000  0.22960  Biso   1.000  F
  F3       1.0000 0.66410  0.66410  0.00000  Biso   1.000  F
  F4       1.0000 0.33590  0.33590  0.00000  Biso   1.000  F
  F5       1.0000 0.33590  0.66410  0.00000  Biso   1.000  F
  F6       1.0000 0.66410  0.33590  0.00000  Biso   1.000  F
