data_image0
_cell_length_a       12.0495
_cell_length_b       14.8817
_cell_length_c       15.9221
_cell_angle_alpha    90
_cell_angle_beta     90
_cell_angle_gamma    90

_symmetry_space_group_name_H-M    P 1
_symmetry_int_tables_number       1

loop_
  _symmetry_equiv_pos_as_xyz
  'x, y, z'

loop_
  _atom_site_label
  _atom_site_occupancy
  _atom_site_fract_x
  _atom_site_fract_y
  _atom_site_fract_z
  _atom_site_thermal_displace_type
  _atom_site_B_iso_or_equiv
  _atom_site_type_symbol
  Cu1      1.0000 0.35138  0.79438  0.50000  Biso   1.000  Cu
  Cu2      1.0000 0.64862  0.20562  0.50000  Biso   1.000  Cu
  Cu3      1.0000 0.14862  0.29438  0.00000  Biso   1.000  Cu
  Cu4      1.0000 0.85138  0.70562  0.00000  Biso   1.000  Cu
  Cu5      1.0000 0.50000  0.00000  0.50000  Biso   1.000  Cu
  Cu6      1.0000 0.00000  0.50000  0.00000  Biso   1.000  Cu
  H1       1.0000 0.63200  0.65810  0.91780  Biso   1.000  H
  H2       1.0000 0.73700  0.91270  0.78250  Biso   1.000  H
  H3       1.0000 0.53710  0.70650  0.79260  Biso   1.000  H
  H4       1.0000 0.82870  0.85630  0.89420  Biso   1.000  H
  H5       1.0000 0.36800  0.34190  0.91780  Biso   1.000  H
  H6       1.0000 0.26300  0.08730  0.78250  Biso   1.000  H
  H7       1.0000 0.46290  0.29350  0.79260  Biso   1.000  H
  H8       1.0000 0.17130  0.14370  0.89420  Biso   1.000  H
  H9       1.0000 0.86800  0.15810  0.58220  Biso   1.000  H
  H10      1.0000 0.76300  0.41270  0.71750  Biso   1.000  H
  H11      1.0000 0.96290  0.20650  0.70740  Biso   1.000  H
  H12      1.0000 0.67130  0.35630  0.60580  Biso   1.000  H
  H13      1.0000 0.13200  0.84190  0.58220  Biso   1.000  H
  H14      1.0000 0.23700  0.58730  0.71750  Biso   1.000  H
  H15      1.0000 0.03710  0.79350  0.70740  Biso   1.000  H
  H16      1.0000 0.32870  0.64370  0.60580  Biso   1.000  H
  H17      1.0000 0.36800  0.34190  0.08220  Biso   1.000  H
  H18      1.0000 0.26300  0.08730  0.21750  Biso   1.000  H
  H19      1.0000 0.46290  0.29350  0.20740  Biso   1.000  H
  H20      1.0000 0.17130  0.14370  0.10580  Biso   1.000  H
  H21      1.0000 0.63200  0.65810  0.08220  Biso   1.000  H
  H22      1.0000 0.73700  0.91270  0.21750  Biso   1.000  H
  H23      1.0000 0.53710  0.70650  0.20740  Biso   1.000  H
  H24      1.0000 0.82870  0.85630  0.10580  Biso   1.000  H
  H25      1.0000 0.13200  0.84190  0.41780  Biso   1.000  H
  H26      1.0000 0.23700  0.58730  0.28250  Biso   1.000  H
  H27      1.0000 0.03710  0.79350  0.29260  Biso   1.000  H
  H28      1.0000 0.32870  0.64370  0.39420  Biso   1.000  H
  H29      1.0000 0.86800  0.15810  0.41780  Biso   1.000  H
  H30      1.0000 0.76300  0.41270  0.28250  Biso   1.000  H
  H31      1.0000 0.96290  0.20650  0.29260  Biso   1.000  H
  H32      1.0000 0.67130  0.35630  0.39420  Biso   1.000  H
  C1       1.0000 0.62680  0.80270  0.76940  Biso   1.000  C
  C2       1.0000 0.56710  0.83160  0.69320  Biso   1.000  C
  C3       1.0000 0.65890  0.70790  0.88640  Biso   1.000  C
  C4       1.0000 0.71660  0.85620  0.80550  Biso   1.000  C
  C5       1.0000 0.60060  0.73940  0.81030  Biso   1.000  C
  C6       1.0000 0.76910  0.82170  0.87250  Biso   1.000  C
  C7       1.0000 0.37320  0.19730  0.76940  Biso   1.000  C
  C8       1.0000 0.43290  0.16840  0.69320  Biso   1.000  C
  C9       1.0000 0.34110  0.29210  0.88640  Biso   1.000  C
  C10      1.0000 0.28340  0.14380  0.80550  Biso   1.000  C
  C11      1.0000 0.39940  0.26060  0.81030  Biso   1.000  C
  C12      1.0000 0.23090  0.17830  0.87250  Biso   1.000  C
  C13      1.0000 0.87320  0.30270  0.73060  Biso   1.000  C
  C14      1.0000 0.93290  0.33160  0.80680  Biso   1.000  C
  C15      1.0000 0.84110  0.20790  0.61360  Biso   1.000  C
  C16      1.0000 0.78340  0.35620  0.69450  Biso   1.000  C
  C17      1.0000 0.89940  0.23940  0.68970  Biso   1.000  C
  C18      1.0000 0.73090  0.32170  0.62750  Biso   1.000  C
  C19      1.0000 0.12680  0.69730  0.73060  Biso   1.000  C
  C20      1.0000 0.06710  0.66840  0.80680  Biso   1.000  C
  C21      1.0000 0.15890  0.79210  0.61360  Biso   1.000  C
  C22      1.0000 0.21660  0.64380  0.69450  Biso   1.000  C
  C23      1.0000 0.10060  0.76060  0.68970  Biso   1.000  C
  C24      1.0000 0.26910  0.67830  0.62750  Biso   1.000  C
  C25      1.0000 0.37320  0.19730  0.23060  Biso   1.000  C
  C26      1.0000 0.43290  0.16840  0.30680  Biso   1.000  C
  C27      1.0000 0.34110  0.29210  0.11360  Biso   1.000  C
  C28      1.0000 0.28340  0.14380  0.19450  Biso   1.000  C
  C29      1.0000 0.39940  0.26060  0.18970  Biso   1.000  C
  C30      1.0000 0.23090  0.17830  0.12750  Biso   1.000  C
  C31      1.0000 0.62680  0.80270  0.23060  Biso   1.000  C
  C32      1.0000 0.56710  0.83160  0.30680  Biso   1.000  C
  C33      1.0000 0.65890  0.70790  0.11360  Biso   1.000  C
  C34      1.0000 0.71660  0.85620  0.19450  Biso   1.000  C
  C35      1.0000 0.60060  0.73940  0.18970  Biso   1.000  C
  C36      1.0000 0.76910  0.82170  0.12750  Biso   1.000  C
  C37      1.0000 0.12680  0.69730  0.26940  Biso   1.000  C
  C38      1.0000 0.06710  0.66840  0.19320  Biso   1.000  C
  C39      1.0000 0.15890  0.79210  0.38640  Biso   1.000  C
  C40      1.0000 0.21660  0.64380  0.30550  Biso   1.000  C
  C41      1.0000 0.10060  0.76060  0.31030  Biso   1.000  C
  C42      1.0000 0.26910  0.67830  0.37250  Biso   1.000  C
  C43      1.0000 0.87320  0.30270  0.26940  Biso   1.000  C
  C44      1.0000 0.93290  0.33160  0.19320  Biso   1.000  C
  C45      1.0000 0.84110  0.20790  0.38640  Biso   1.000  C
  C46      1.0000 0.78340  0.35620  0.30550  Biso   1.000  C
  C47      1.0000 0.89940  0.23940  0.31030  Biso   1.000  C
  C48      1.0000 0.73090  0.32170  0.37250  Biso   1.000  C
  N1       1.0000 0.51710  0.90520  0.58790  Biso   1.000  N
  N2       1.0000 0.46370  0.82780  0.58860  Biso   1.000  N
  N3       1.0000 0.49370  0.77880  0.65390  Biso   1.000  N
  N4       1.0000 0.58350  0.90900  0.65600  Biso   1.000  N
  N5       1.0000 0.74930  0.75110  0.90910  Biso   1.000  N
  N6       1.0000 0.48290  0.09480  0.58790  Biso   1.000  N
  N7       1.0000 0.53630  0.17220  0.58860  Biso   1.000  N
  N8       1.0000 0.50630  0.22120  0.65390  Biso   1.000  N
  N9       1.0000 0.41650  0.09100  0.65600  Biso   1.000  N
  N10      1.0000 0.25070  0.24890  0.90910  Biso   1.000  N
  N11      1.0000 0.98290  0.40520  0.91210  Biso   1.000  N
  N12      1.0000 0.03630  0.32780  0.91140  Biso   1.000  N
  N13      1.0000 0.00630  0.27880  0.84610  Biso   1.000  N
  N14      1.0000 0.91650  0.40900  0.84400  Biso   1.000  N
  N15      1.0000 0.75070  0.25110  0.59090  Biso   1.000  N
  N16      1.0000 0.01710  0.59480  0.91210  Biso   1.000  N
  N17      1.0000 0.96370  0.67220  0.91140  Biso   1.000  N
  N18      1.0000 0.99370  0.72120  0.84610  Biso   1.000  N
  N19      1.0000 0.08350  0.59100  0.84400  Biso   1.000  N
  N20      1.0000 0.24930  0.74890  0.59090  Biso   1.000  N
  N21      1.0000 0.48290  0.09480  0.41210  Biso   1.000  N
  N22      1.0000 0.53630  0.17220  0.41140  Biso   1.000  N
  N23      1.0000 0.50630  0.22120  0.34610  Biso   1.000  N
  N24      1.0000 0.41650  0.09100  0.34400  Biso   1.000  N
  N25      1.0000 0.25070  0.24890  0.09090  Biso   1.000  N
  N26      1.0000 0.51710  0.90520  0.41210  Biso   1.000  N
  N27      1.0000 0.46370  0.82780  0.41140  Biso   1.000  N
  N28      1.0000 0.49370  0.77880  0.34610  Biso   1.000  N
  N29      1.0000 0.58350  0.90900  0.34400  Biso   1.000  N
  N30      1.0000 0.74930  0.75110  0.09090  Biso   1.000  N
  N31      1.0000 0.01710  0.59480  0.08790  Biso   1.000  N
  N32      1.0000 0.96370  0.67220  0.08860  Biso   1.000  N
  N33      1.0000 0.99370  0.72120  0.15390  Biso   1.000  N
  N34      1.0000 0.08350  0.59100  0.15600  Biso   1.000  N
  N35      1.0000 0.24930  0.74890  0.40910  Biso   1.000  N
  N36      1.0000 0.98290  0.40520  0.08790  Biso   1.000  N
  N37      1.0000 0.03630  0.32780  0.08860  Biso   1.000  N
  N38      1.0000 0.00630  0.27880  0.15390  Biso   1.000  N
  N39      1.0000 0.91650  0.40900  0.15600  Biso   1.000  N
  N40      1.0000 0.75070  0.25110  0.40910  Biso   1.000  N
  Cl1      1.0000 0.28262  0.96169  0.50000  Biso   1.000  Cl
  Cl2      1.0000 0.71738  0.03831  0.50000  Biso   1.000  Cl
  Cl3      1.0000 0.21738  0.46169  0.00000  Biso   1.000  Cl
  Cl4      1.0000 0.78262  0.53831  0.00000  Biso   1.000  Cl
