data_image0
_cell_length_a       12.1798
_cell_length_b       12.1798
_cell_length_c       12.6634
_cell_angle_alpha    103.939
_cell_angle_beta     103.939
_cell_angle_gamma    103.003

_symmetry_space_group_name_H-M    P 1
_symmetry_int_tables_number       1

loop_
  _symmetry_equiv_pos_as_xyz
  'x, y, z'

loop_
  _atom_site_label
  _atom_site_occupancy
  _atom_site_fract_x
  _atom_site_fract_y
  _atom_site_fract_z
  _atom_site_thermal_displace_type
  _atom_site_B_iso_or_equiv
  _atom_site_type_symbol
  Ba1      1.0000 0.81972  0.18028  0.75000  Biso   1.000  Ba
  Ba2      1.0000 0.18028  0.81972  0.25000  Biso   1.000  Ba
  Zn1      1.0000 0.82682  0.41400  0.03827  Biso   1.000  Zn
  Zn2      1.0000 0.58600  0.17318  0.46173  Biso   1.000  Zn
  Zn3      1.0000 0.17318  0.58600  0.96173  Biso   1.000  Zn
  Zn4      1.0000 0.41400  0.82682  0.53827  Biso   1.000  Zn
  H1       1.0000 0.06130  0.10850  0.01630  Biso   1.000  H
  H2       1.0000 0.20480  0.04720  0.12070  Biso   1.000  H
  H3       1.0000 0.31530  0.35810  0.36900  Biso   1.000  H
  H4       1.0000 0.16860  0.41920  0.26730  Biso   1.000  H
  H5       1.0000 0.59170  0.17270  0.15090  Biso   1.000  H
  H6       1.0000 0.52690  0.98810  0.82380  Biso   1.000  H
  H7       1.0000 0.87330  0.47970  0.87720  Biso   1.000  H
  H8       1.0000 0.75930  0.41390  0.83360  Biso   1.000  H
  H9       1.0000 0.89150  0.93870  0.48370  Biso   1.000  H
  H10      1.0000 0.95280  0.79520  0.37930  Biso   1.000  H
  H11      1.0000 0.64190  0.68470  0.13100  Biso   1.000  H
  H12      1.0000 0.58080  0.83140  0.23270  Biso   1.000  H
  H13      1.0000 0.82730  0.40830  0.34910  Biso   1.000  H
  H14      1.0000 0.01190  0.47310  0.67620  Biso   1.000  H
  H15      1.0000 0.52030  0.12670  0.62280  Biso   1.000  H
  H16      1.0000 0.58610  0.24070  0.66640  Biso   1.000  H
  H17      1.0000 0.93870  0.89150  0.98370  Biso   1.000  H
  H18      1.0000 0.79520  0.95280  0.87930  Biso   1.000  H
  H19      1.0000 0.68470  0.64190  0.63100  Biso   1.000  H
  H20      1.0000 0.83140  0.58080  0.73270  Biso   1.000  H
  H21      1.0000 0.40830  0.82730  0.84910  Biso   1.000  H
  H22      1.0000 0.47310  0.01190  0.17620  Biso   1.000  H
  H23      1.0000 0.12670  0.52030  0.12280  Biso   1.000  H
  H24      1.0000 0.24070  0.58610  0.16640  Biso   1.000  H
  H25      1.0000 0.10850  0.06130  0.51630  Biso   1.000  H
  H26      1.0000 0.04720  0.20480  0.62070  Biso   1.000  H
  H27      1.0000 0.35810  0.31530  0.86900  Biso   1.000  H
  H28      1.0000 0.41920  0.16860  0.76730  Biso   1.000  H
  H29      1.0000 0.17270  0.59170  0.65090  Biso   1.000  H
  H30      1.0000 0.98810  0.52690  0.32380  Biso   1.000  H
  H31      1.0000 0.47970  0.87330  0.37720  Biso   1.000  H
  H32      1.0000 0.41390  0.75930  0.33360  Biso   1.000  H
  C1       1.0000 0.99508  0.29932  0.06660  Biso   1.000  C
  C2       1.0000 0.09722  0.26898  0.13250  Biso   1.000  C
  C3       1.0000 0.11080  0.15820  0.08820  Biso   1.000  C
  C4       1.0000 0.19710  0.12170  0.15050  Biso   1.000  C
  C5       1.0000 0.27254  0.19526  0.25720  Biso   1.000  C
  C6       1.0000 0.26260  0.30700  0.29900  Biso   1.000  C
  C7       1.0000 0.17509  0.34411  0.23770  Biso   1.000  C
  C8       1.0000 0.36058  0.14962  0.32610  Biso   1.000  C
  C9       1.0000 0.65277  0.19963  0.96710  Biso   1.000  C
  C10      1.0000 0.57270  0.09610  0.98460  Biso   1.000  C
  C11      1.0000 0.55500  0.10280  0.09010  Biso   1.000  C
  C12      1.0000 0.51650  0.99310  0.89500  Biso   1.000  C
  C13      1.0000 0.97940  0.95260  0.72300  Biso   1.000  C
  C14      1.0000 0.17690  0.99090  0.85630  Biso   1.000  C
  C15      1.0000 0.07220  0.80000  0.68090  Biso   1.000  C
  C16      1.0000 0.70068  0.00492  0.43340  Biso   1.000  C
  C17      1.0000 0.73102  0.90278  0.36750  Biso   1.000  C
  C18      1.0000 0.84180  0.88920  0.41180  Biso   1.000  C
  C19      1.0000 0.87830  0.80290  0.34950  Biso   1.000  C
  C20      1.0000 0.80474  0.72746  0.24280  Biso   1.000  C
  C21      1.0000 0.69300  0.73740  0.20100  Biso   1.000  C
  C22      1.0000 0.65589  0.82491  0.26230  Biso   1.000  C
  C23      1.0000 0.85038  0.63942  0.17390  Biso   1.000  C
  C24      1.0000 0.80037  0.34723  0.53290  Biso   1.000  C
  C25      1.0000 0.90390  0.42730  0.51540  Biso   1.000  C
  C26      1.0000 0.89720  0.44500  0.40990  Biso   1.000  C
  C27      1.0000 0.00690  0.48350  0.60500  Biso   1.000  C
  C28      1.0000 0.04740  0.02060  0.77700  Biso   1.000  C
  C29      1.0000 0.00910  0.82310  0.64370  Biso   1.000  C
  C30      1.0000 0.20000  0.92780  0.81910  Biso   1.000  C
  C31      1.0000 0.00492  0.70068  0.93340  Biso   1.000  C
  C32      1.0000 0.90278  0.73102  0.86750  Biso   1.000  C
  C33      1.0000 0.88920  0.84180  0.91180  Biso   1.000  C
  C34      1.0000 0.80290  0.87830  0.84950  Biso   1.000  C
  C35      1.0000 0.72746  0.80474  0.74280  Biso   1.000  C
  C36      1.0000 0.73740  0.69300  0.70100  Biso   1.000  C
  C37      1.0000 0.82491  0.65589  0.76230  Biso   1.000  C
  C38      1.0000 0.63942  0.85038  0.67390  Biso   1.000  C
  C39      1.0000 0.34723  0.80037  0.03290  Biso   1.000  C
  C40      1.0000 0.42730  0.90390  0.01540  Biso   1.000  C
  C41      1.0000 0.44500  0.89720  0.90990  Biso   1.000  C
  C42      1.0000 0.48350  0.00690  0.10500  Biso   1.000  C
  C43      1.0000 0.02060  0.04740  0.27700  Biso   1.000  C
  C44      1.0000 0.82310  0.00910  0.14370  Biso   1.000  C
  C45      1.0000 0.92780  0.20000  0.31910  Biso   1.000  C
  C46      1.0000 0.29932  0.99508  0.56660  Biso   1.000  C
  C47      1.0000 0.26898  0.09722  0.63250  Biso   1.000  C
  C48      1.0000 0.15820  0.11080  0.58820  Biso   1.000  C
  C49      1.0000 0.12170  0.19710  0.65050  Biso   1.000  C
  C50      1.0000 0.19526  0.27254  0.75720  Biso   1.000  C
  C51      1.0000 0.30700  0.26260  0.79900  Biso   1.000  C
  C52      1.0000 0.34411  0.17509  0.73770  Biso   1.000  C
  C53      1.0000 0.14962  0.36058  0.82610  Biso   1.000  C
  C54      1.0000 0.19963  0.65277  0.46710  Biso   1.000  C
  C55      1.0000 0.09610  0.57270  0.48460  Biso   1.000  C
  C56      1.0000 0.10280  0.55500  0.59010  Biso   1.000  C
  C57      1.0000 0.99310  0.51650  0.39500  Biso   1.000  C
  C58      1.0000 0.95260  0.97940  0.22300  Biso   1.000  C
  C59      1.0000 0.99090  0.17690  0.35630  Biso   1.000  C
  C60      1.0000 0.80000  0.07220  0.18090  Biso   1.000  C
  N1       1.0000 0.07860  0.92140  0.75000  Biso   1.000  N
  N2       1.0000 0.92140  0.07860  0.25000  Biso   1.000  N
  O1       1.0000 0.92153  0.22427  0.98010  Biso   1.000  O
  O2       1.0000 0.98682  0.40404  0.10650  Biso   1.000  O
  O3       1.0000 0.33947  0.04333  0.31320  Biso   1.000  O
  O4       1.0000 0.45425  0.22759  0.39470  Biso   1.000  O
  O5       1.0000 0.71145  0.28769  0.05700  Biso   1.000  O
  O6       1.0000 0.65935  0.19403  0.87030  Biso   1.000  O
  O7       1.0000 0.82483  0.41923  0.88040  Biso   1.000  O
  O8       1.0000 0.77573  0.07847  0.51990  Biso   1.000  O
  O9       1.0000 0.59596  0.01318  0.39350  Biso   1.000  O
  O10      1.0000 0.95667  0.66053  0.18680  Biso   1.000  O
  O11      1.0000 0.77241  0.54575  0.10530  Biso   1.000  O
  O12      1.0000 0.71231  0.28855  0.44300  Biso   1.000  O
  O13      1.0000 0.80597  0.34065  0.62970  Biso   1.000  O
  O14      1.0000 0.58077  0.17517  0.61960  Biso   1.000  O
  O15      1.0000 0.07847  0.77573  0.01990  Biso   1.000  O
  O16      1.0000 0.01318  0.59596  0.89350  Biso   1.000  O
  O17      1.0000 0.66053  0.95667  0.68680  Biso   1.000  O
  O18      1.0000 0.54575  0.77241  0.60530  Biso   1.000  O
  O19      1.0000 0.28855  0.71231  0.94300  Biso   1.000  O
  O20      1.0000 0.34065  0.80597  0.12970  Biso   1.000  O
  O21      1.0000 0.17517  0.58077  0.11960  Biso   1.000  O
  O22      1.0000 0.22427  0.92153  0.48010  Biso   1.000  O
  O23      1.0000 0.40404  0.98682  0.60650  Biso   1.000  O
  O24      1.0000 0.04333  0.33947  0.81320  Biso   1.000  O
  O25      1.0000 0.22759  0.45425  0.89470  Biso   1.000  O
  O26      1.0000 0.28769  0.71145  0.55700  Biso   1.000  O
  O27      1.0000 0.19403  0.65935  0.37030  Biso   1.000  O
  O28      1.0000 0.41923  0.82483  0.38040  Biso   1.000  O
  O29      1.0000 0.96100  0.03900  0.75000  Biso   1.000  O
  O30      1.0000 0.03900  0.96100  0.25000  Biso   1.000  O
