data_image0
_cell_length_a       7.3007
_cell_length_b       8.8312
_cell_length_c       8.8312
_cell_angle_alpha    90
_cell_angle_beta     90
_cell_angle_gamma    90

_symmetry_space_group_name_H-M    P 1
_symmetry_int_tables_number       1

loop_
  _symmetry_equiv_pos_as_xyz
  'x, y, z'

loop_
  _atom_site_label
  _atom_site_occupancy
  _atom_site_fract_x
  _atom_site_fract_y
  _atom_site_fract_z
  _atom_site_thermal_displace_type
  _atom_site_B_iso_or_equiv
  _atom_site_type_symbol
  Zn1      1.0000 0.75000  0.00000  0.00000  Biso   1.000  Zn
  Zn2      1.0000 0.25000  0.00000  0.00000  Biso   1.000  Zn
  H1       1.0000 0.72554  0.38200  0.00000  Biso   1.000  H
  H2       1.0000 0.72554  0.61800  0.00000  Biso   1.000  H
  H3       1.0000 0.22554  0.00000  0.38200  Biso   1.000  H
  H4       1.0000 0.22554  0.00000  0.61800  Biso   1.000  H
  H5       1.0000 0.27446  0.61800  0.00000  Biso   1.000  H
  H6       1.0000 0.27446  0.38200  0.00000  Biso   1.000  H
  H7       1.0000 0.77446  0.00000  0.38200  Biso   1.000  H
  H8       1.0000 0.77446  0.00000  0.61800  Biso   1.000  H
  C1       1.0000 0.00000  0.43928  0.00000  Biso   1.000  C
  C2       1.0000 0.00000  0.56072  0.00000  Biso   1.000  C
  C3       1.0000 0.50000  0.00000  0.43928  Biso   1.000  C
  C4       1.0000 0.50000  0.00000  0.56072  Biso   1.000  C
  C5       1.0000 0.84929  0.34876  0.00000  Biso   1.000  C
  C6       1.0000 0.84929  0.65124  0.00000  Biso   1.000  C
  C7       1.0000 0.34929  0.00000  0.34876  Biso   1.000  C
  C8       1.0000 0.34929  0.00000  0.65124  Biso   1.000  C
  C9       1.0000 0.15071  0.65124  0.00000  Biso   1.000  C
  C10      1.0000 0.15071  0.34876  0.00000  Biso   1.000  C
  C11      1.0000 0.65071  0.00000  0.34876  Biso   1.000  C
  C12      1.0000 0.65071  0.00000  0.65124  Biso   1.000  C
  N1       1.0000 0.90686  0.20230  0.00000  Biso   1.000  N
  N2       1.0000 0.90686  0.79770  0.00000  Biso   1.000  N
  N3       1.0000 0.40686  0.00000  0.20230  Biso   1.000  N
  N4       1.0000 0.40686  0.00000  0.79770  Biso   1.000  N
  N5       1.0000 0.09314  0.79770  0.00000  Biso   1.000  N
  N6       1.0000 0.09314  0.20230  0.00000  Biso   1.000  N
  N7       1.0000 0.59314  0.00000  0.20230  Biso   1.000  N
  N8       1.0000 0.59314  0.00000  0.79770  Biso   1.000  N
