data_image0
_cell_length_a       10.0662
_cell_length_b       11.4492
_cell_length_c       12.7746
_cell_angle_alpha    108.73
_cell_angle_beta     96.948
_cell_angle_gamma    96.802

_symmetry_space_group_name_H-M    P 1
_symmetry_int_tables_number       1

loop_
  _symmetry_equiv_pos_as_xyz
  'x, y, z'

loop_
  _atom_site_label
  _atom_site_occupancy
  _atom_site_fract_x
  _atom_site_fract_y
  _atom_site_fract_z
  _atom_site_thermal_displace_type
  _atom_site_B_iso_or_equiv
  _atom_site_type_symbol
  Gd1      1.0000 0.93186  0.92366  0.61605  Biso   1.000  Gd
  Gd2      1.0000 0.54836  0.40184  0.24178  Biso   1.000  Gd
  Gd3      1.0000 0.06814  0.07634  0.38395  Biso   1.000  Gd
  Gd4      1.0000 0.45164  0.59816  0.75822  Biso   1.000  Gd
  H1       1.0000 0.86100  0.44600  0.37500  Biso   1.000  H
  H2       1.0000 0.23800  0.67600  0.31900  Biso   1.000  H
  H3       1.0000 0.98000  0.69300  0.11000  Biso   1.000  H
  H4       1.0000 0.18000  0.05800  0.75000  Biso   1.000  H
  H5       1.0000 0.18800  0.09500  0.66000  Biso   1.000  H
  H6       1.0000 0.93800  0.93600  0.84400  Biso   1.000  H
  H7       1.0000 0.90400  0.03300  0.84800  Biso   1.000  H
  H8       1.0000 0.65600  0.98800  0.64400  Biso   1.000  H
  H9       1.0000 0.66100  0.91200  0.55700  Biso   1.000  H
  H10      1.0000 0.62600  0.41800  0.46900  Biso   1.000  H
  H11      1.0000 0.64200  0.32100  0.41600  Biso   1.000  H
  H12      1.0000 0.73500  0.23400  0.15300  Biso   1.000  H
  H13      1.0000 0.75300  0.24000  0.25100  Biso   1.000  H
  H14      1.0000 0.37000  0.20500  0.27300  Biso   1.000  H
  H15      1.0000 0.40200  0.15200  0.19800  Biso   1.000  H
  H16      1.0000 0.42100  0.24500  0.02200  Biso   1.000  H
  H17      1.0000 0.53700  0.27600  0.01300  Biso   1.000  H
  H18      1.0000 0.42700  0.58700  0.15200  Biso   1.000  H
  H19      1.0000 0.54300  0.60500  0.17800  Biso   1.000  H
  H20      1.0000 0.13900  0.55400  0.62500  Biso   1.000  H
  H21      1.0000 0.76200  0.32400  0.68100  Biso   1.000  H
  H22      1.0000 0.02000  0.30700  0.89000  Biso   1.000  H
  H23      1.0000 0.82000  0.94200  0.25000  Biso   1.000  H
  H24      1.0000 0.81200  0.90500  0.34000  Biso   1.000  H
  H25      1.0000 0.06200  0.06400  0.15600  Biso   1.000  H
  H26      1.0000 0.09600  0.96700  0.15200  Biso   1.000  H
  H27      1.0000 0.34400  0.01200  0.35600  Biso   1.000  H
  H28      1.0000 0.33900  0.08800  0.44300  Biso   1.000  H
  H29      1.0000 0.37400  0.58200  0.53100  Biso   1.000  H
  H30      1.0000 0.35800  0.67900  0.58400  Biso   1.000  H
  H31      1.0000 0.26500  0.76600  0.84700  Biso   1.000  H
  H32      1.0000 0.24700  0.76000  0.74900  Biso   1.000  H
  H33      1.0000 0.63000  0.79500  0.72700  Biso   1.000  H
  H34      1.0000 0.59800  0.84800  0.80200  Biso   1.000  H
  H35      1.0000 0.57900  0.75500  0.97800  Biso   1.000  H
  H36      1.0000 0.46300  0.72400  0.98700  Biso   1.000  H
  H37      1.0000 0.57300  0.41300  0.84800  Biso   1.000  H
  H38      1.0000 0.45700  0.39500  0.82200  Biso   1.000  H
  C1       1.0000 0.06500  0.82200  0.37590  Biso   1.000  C
  C2       1.0000 0.04830  0.68600  0.36350  Biso   1.000  C
  C3       1.0000 0.93160  0.61540  0.37490  Biso   1.000  C
  C4       1.0000 0.80220  0.66960  0.39350  Biso   1.000  C
  C5       1.0000 0.93410  0.49100  0.36650  Biso   1.000  C
  C6       1.0000 0.04850  0.43610  0.34530  Biso   1.000  C
  C7       1.0000 0.05260  0.30630  0.34800  Biso   1.000  C
  C8       1.0000 0.16180  0.50570  0.32780  Biso   1.000  C
  C9       1.0000 0.28800  0.45570  0.29640  Biso   1.000  C
  C10      1.0000 0.16050  0.62910  0.33580  Biso   1.000  C
  C11      1.0000 0.77080  0.53720  0.11600  Biso   1.000  C
  C12      1.0000 0.88600  0.51690  0.05200  Biso   1.000  C
  C13      1.0000 0.89860  0.39780  0.98130  Biso   1.000  C
  C14      1.0000 0.78930  0.28520  0.95440  Biso   1.000  C
  C15      1.0000 0.98790  0.61700  0.06900  Biso   1.000  C
  C16      1.0000 0.93500  0.17800  0.62410  Biso   1.000  C
  C17      1.0000 0.95170  0.31400  0.63650  Biso   1.000  C
  C18      1.0000 0.06840  0.38460  0.62510  Biso   1.000  C
  C19      1.0000 0.19780  0.33040  0.60650  Biso   1.000  C
  C20      1.0000 0.06590  0.50900  0.63350  Biso   1.000  C
  C21      1.0000 0.95150  0.56390  0.65470  Biso   1.000  C
  C22      1.0000 0.94740  0.69370  0.65200  Biso   1.000  C
  C23      1.0000 0.83820  0.49430  0.67220  Biso   1.000  C
  C24      1.0000 0.71200  0.54430  0.70360  Biso   1.000  C
  C25      1.0000 0.83950  0.37090  0.66420  Biso   1.000  C
  C26      1.0000 0.22920  0.46280  0.88400  Biso   1.000  C
  C27      1.0000 0.11400  0.48310  0.94800  Biso   1.000  C
  C28      1.0000 0.10140  0.60220  0.01870  Biso   1.000  C
  C29      1.0000 0.21070  0.71480  0.04560  Biso   1.000  C
  C30      1.0000 0.01210  0.38300  0.93100  Biso   1.000  C
  O1       1.0000 0.07550  0.90510  0.47340  Biso   1.000  O
  O2       1.0000 0.07800  0.85370  0.29290  Biso   1.000  O
  O3       1.0000 0.81450  0.78790  0.43530  Biso   1.000  O
  O4       1.0000 0.69120  0.59690  0.36750  Biso   1.000  O
  O5       1.0000 0.94480  0.23710  0.34750  Biso   1.000  O
  O6       1.0000 0.16520  0.26960  0.35480  Biso   1.000  O
  O7       1.0000 0.28860  0.38810  0.19750  Biso   1.000  O
  O8       1.0000 0.39560  0.49280  0.36960  Biso   1.000  O
  O9       1.0000 0.71870  0.44600  0.14070  Biso   1.000  O
  O10      1.0000 0.73490  0.64330  0.14450  Biso   1.000  O
  O11      1.0000 0.82270  0.19370  0.98000  Biso   1.000  O
  O12      1.0000 0.67370  0.28830  0.90600  Biso   1.000  O
  O13      1.0000 0.16470  0.03500  0.69170  Biso   1.000  O
  O14      1.0000 0.92650  0.97600  0.81310  Biso   1.000  O
  O15      1.0000 0.70220  0.94190  0.60530  Biso   1.000  O
  O16      1.0000 0.63580  0.37770  0.41490  Biso   1.000  O
  O17      1.0000 0.70300  0.24070  0.20760  Biso   1.000  O
  O18      1.0000 0.42680  0.20750  0.24900  Biso   1.000  O
  O19      1.0000 0.48790  0.27510  0.04960  Biso   1.000  O
  O20      1.0000 0.48850  0.57290  0.18470  Biso   1.000  O
  O21      1.0000 0.92450  0.09490  0.52660  Biso   1.000  O
  O22      1.0000 0.92200  0.14630  0.70710  Biso   1.000  O
  O23      1.0000 0.18550  0.21210  0.56470  Biso   1.000  O
  O24      1.0000 0.30880  0.40310  0.63250  Biso   1.000  O
  O25      1.0000 0.05520  0.76290  0.65250  Biso   1.000  O
  O26      1.0000 0.83480  0.73040  0.64520  Biso   1.000  O
  O27      1.0000 0.71140  0.61190  0.80250  Biso   1.000  O
  O28      1.0000 0.60440  0.50720  0.63040  Biso   1.000  O
  O29      1.0000 0.28130  0.55400  0.85930  Biso   1.000  O
  O30      1.0000 0.26510  0.35670  0.85550  Biso   1.000  O
  O31      1.0000 0.17730  0.80630  0.02000  Biso   1.000  O
  O32      1.0000 0.32630  0.71170  0.09400  Biso   1.000  O
  O33      1.0000 0.83530  0.96500  0.30830  Biso   1.000  O
  O34      1.0000 0.07350  0.02400  0.18690  Biso   1.000  O
  O35      1.0000 0.29780  0.05810  0.39470  Biso   1.000  O
  O36      1.0000 0.36420  0.62230  0.58510  Biso   1.000  O
  O37      1.0000 0.29700  0.75930  0.79240  Biso   1.000  O
  O38      1.0000 0.57320  0.79250  0.75100  Biso   1.000  O
  O39      1.0000 0.51210  0.72490  0.95040  Biso   1.000  O
  O40      1.0000 0.51150  0.42710  0.81530  Biso   1.000  O
