data_image0
_cell_length_a       7.122
_cell_length_b       7.613
_cell_length_c       9.628
_cell_angle_alpha    90
_cell_angle_beta     100.01
_cell_angle_gamma    90

_symmetry_space_group_name_H-M    P 1
_symmetry_int_tables_number       1

loop_
  _symmetry_equiv_pos_as_xyz
  'x, y, z'

loop_
  _atom_site_label
  _atom_site_occupancy
  _atom_site_fract_x
  _atom_site_fract_y
  _atom_site_fract_z
  _atom_site_thermal_displace_type
  _atom_site_B_iso_or_equiv
  _atom_site_type_symbol
  Cd1      1.0000 0.00000  0.00000  0.00000  Biso   1.000  Cd
  Ni1      1.0000 0.50000  0.50000  0.00000  Biso   1.000  Ni
  H1       1.0000 0.98969  0.11544  0.71312  Biso   1.000  H
  H2       1.0000 0.33003  0.88456  0.79833  Biso   1.000  H
  H3       1.0000 0.20922  0.11544  0.54321  Biso   1.000  H
  H4       1.0000 0.55597  0.88456  0.62766  Biso   1.000  H
  H5       1.0000 0.01031  0.11544  0.28688  Biso   1.000  H
  H6       1.0000 0.66997  0.88456  0.20167  Biso   1.000  H
  H7       1.0000 0.79078  0.11544  0.45679  Biso   1.000  H
  H8       1.0000 0.44403  0.88456  0.37234  Biso   1.000  H
  H9       1.0000 0.01031  0.88456  0.28688  Biso   1.000  H
  H10      1.0000 0.66997  0.11544  0.20167  Biso   1.000  H
  H11      1.0000 0.79078  0.88456  0.45679  Biso   1.000  H
  H12      1.0000 0.44403  0.11544  0.37234  Biso   1.000  H
  H13      1.0000 0.98969  0.88456  0.71312  Biso   1.000  H
  H14      1.0000 0.33003  0.11544  0.79833  Biso   1.000  H
  H15      1.0000 0.20922  0.88456  0.54321  Biso   1.000  H
  H16      1.0000 0.55597  0.11544  0.62766  Biso   1.000  H
  C1       1.0000 0.66550  0.67190  0.95880  Biso   1.000  C
  C2       1.0000 0.33450  0.67190  0.04120  Biso   1.000  C
  C3       1.0000 0.33450  0.32810  0.04120  Biso   1.000  C
  C4       1.0000 0.66550  0.32810  0.95880  Biso   1.000  C
  C5       1.0000 0.25870  0.00000  0.74810  Biso   1.000  C
  C6       1.0000 0.27890  0.00000  0.59400  Biso   1.000  C
  C7       1.0000 0.48660  0.00000  0.57630  Biso   1.000  C
  C8       1.0000 0.74130  0.00000  0.25190  Biso   1.000  C
  C9       1.0000 0.72110  0.00000  0.40600  Biso   1.000  C
  C10      1.0000 0.51340  0.00000  0.42370  Biso   1.000  C
  N1       1.0000 0.77130  0.77900  0.93840  Biso   1.000  N
  N2       1.0000 0.22870  0.77900  0.06160  Biso   1.000  N
  N3       1.0000 0.22870  0.22100  0.06160  Biso   1.000  N
  N4       1.0000 0.77130  0.22100  0.93840  Biso   1.000  N
  N5       1.0000 0.05750  0.00000  0.77070  Biso   1.000  N
  N6       1.0000 0.94250  0.00000  0.22930  Biso   1.000  N
