data_image0
_cell_length_a       6.6018
_cell_length_b       13.8911
_cell_length_c       15.954
_cell_angle_alpha    90
_cell_angle_beta     90
_cell_angle_gamma    91.699

_symmetry_space_group_name_H-M    P 1
_symmetry_int_tables_number       1

loop_
  _symmetry_equiv_pos_as_xyz
  'x, y, z'

loop_
  _atom_site_label
  _atom_site_occupancy
  _atom_site_fract_x
  _atom_site_fract_y
  _atom_site_fract_z
  _atom_site_thermal_displace_type
  _atom_site_B_iso_or_equiv
  _atom_site_type_symbol
  Al1      1.0000 0.00000  0.00000  0.00000  Biso   1.000  Al
  Al2      1.0000 0.50000  0.50000  0.50000  Biso   1.000  Al
  Al3      1.0000 0.50000  0.00000  0.00000  Biso   1.000  Al
  Al4      1.0000 0.00000  0.50000  0.50000  Biso   1.000  Al
  H1       1.0000 0.23813  0.88517  0.98040  Biso   1.000  H
  H2       1.0000 0.56779  0.29523  0.69077  Biso   1.000  H
  H3       1.0000 0.56265  0.19253  0.80503  Biso   1.000  H
  H4       1.0000 0.96248  0.29519  0.69190  Biso   1.000  H
  H5       1.0000 0.95703  0.19248  0.80616  Biso   1.000  H
  H6       1.0000 0.26187  0.61483  0.48040  Biso   1.000  H
  H7       1.0000 0.93221  0.20477  0.19077  Biso   1.000  H
  H8       1.0000 0.93735  0.30747  0.30503  Biso   1.000  H
  H9       1.0000 0.53752  0.20481  0.19190  Biso   1.000  H
  H10      1.0000 0.54297  0.30752  0.30616  Biso   1.000  H
  H11      1.0000 0.76187  0.11483  0.01960  Biso   1.000  H
  H12      1.0000 0.43221  0.70477  0.30923  Biso   1.000  H
  H13      1.0000 0.43735  0.80747  0.19497  Biso   1.000  H
  H14      1.0000 0.03752  0.70481  0.30810  Biso   1.000  H
  H15      1.0000 0.04297  0.80752  0.19384  Biso   1.000  H
  H16      1.0000 0.73813  0.38517  0.51960  Biso   1.000  H
  H17      1.0000 0.06779  0.79523  0.80923  Biso   1.000  H
  H18      1.0000 0.06265  0.69253  0.69497  Biso   1.000  H
  H19      1.0000 0.46248  0.79519  0.80810  Biso   1.000  H
  H20      1.0000 0.45703  0.69248  0.69384  Biso   1.000  H
  C1       1.0000 0.26930  0.37623  0.61000  Biso   1.000  C
  C2       1.0000 0.26582  0.30695  0.68157  Biso   1.000  C
  C3       1.0000 0.44494  0.27512  0.71437  Biso   1.000  C
  C4       1.0000 0.25613  0.11969  0.89287  Biso   1.000  C
  C5       1.0000 0.25931  0.18206  0.81668  Biso   1.000  C
  C6       1.0000 0.44192  0.21318  0.78237  Biso   1.000  C
  C7       1.0000 0.08321  0.27511  0.71506  Biso   1.000  C
  C8       1.0000 0.07988  0.21317  0.78306  Biso   1.000  C
  C9       1.0000 0.23070  0.12377  0.11000  Biso   1.000  C
  C10      1.0000 0.23418  0.19305  0.18157  Biso   1.000  C
  C11      1.0000 0.05506  0.22488  0.21437  Biso   1.000  C
  C12      1.0000 0.24387  0.38031  0.39287  Biso   1.000  C
  C13      1.0000 0.24069  0.31794  0.31668  Biso   1.000  C
  C14      1.0000 0.05808  0.28682  0.28237  Biso   1.000  C
  C15      1.0000 0.41679  0.22489  0.21506  Biso   1.000  C
  C16      1.0000 0.42012  0.28683  0.28306  Biso   1.000  C
  C17      1.0000 0.73070  0.62377  0.39000  Biso   1.000  C
  C18      1.0000 0.73418  0.69305  0.31843  Biso   1.000  C
  C19      1.0000 0.55506  0.72488  0.28563  Biso   1.000  C
  C20      1.0000 0.74387  0.88031  0.10713  Biso   1.000  C
  C21      1.0000 0.74069  0.81794  0.18332  Biso   1.000  C
  C22      1.0000 0.55808  0.78682  0.21763  Biso   1.000  C
  C23      1.0000 0.91679  0.72489  0.28494  Biso   1.000  C
  C24      1.0000 0.92012  0.78683  0.21694  Biso   1.000  C
  C25      1.0000 0.76930  0.87623  0.89000  Biso   1.000  C
  C26      1.0000 0.76582  0.80695  0.81843  Biso   1.000  C
  C27      1.0000 0.94494  0.77512  0.78563  Biso   1.000  C
  C28      1.0000 0.75613  0.61969  0.60713  Biso   1.000  C
  C29      1.0000 0.75931  0.68206  0.68332  Biso   1.000  C
  C30      1.0000 0.94192  0.71318  0.71763  Biso   1.000  C
  C31      1.0000 0.58321  0.77511  0.78494  Biso   1.000  C
  C32      1.0000 0.57988  0.71317  0.71694  Biso   1.000  C
  O1       1.0000 0.24358  0.94189  0.99311  Biso   1.000  O
  O2       1.0000 0.08563  0.09601  0.92261  Biso   1.000  O
  O3       1.0000 0.10121  0.40175  0.58183  Biso   1.000  O
  O4       1.0000 0.42422  0.09396  0.92074  Biso   1.000  O
  O5       1.0000 0.44025  0.40380  0.58270  Biso   1.000  O
  O6       1.0000 0.25642  0.55811  0.49311  Biso   1.000  O
  O7       1.0000 0.41437  0.40399  0.42261  Biso   1.000  O
  O8       1.0000 0.39879  0.09825  0.08183  Biso   1.000  O
  O9       1.0000 0.07578  0.40604  0.42074  Biso   1.000  O
  O10      1.0000 0.05975  0.09620  0.08270  Biso   1.000  O
  O11      1.0000 0.75642  0.05811  0.00689  Biso   1.000  O
  O12      1.0000 0.91437  0.90399  0.07739  Biso   1.000  O
  O13      1.0000 0.89879  0.59825  0.41817  Biso   1.000  O
  O14      1.0000 0.57578  0.90604  0.07926  Biso   1.000  O
  O15      1.0000 0.55975  0.59620  0.41730  Biso   1.000  O
  O16      1.0000 0.74358  0.44189  0.50689  Biso   1.000  O
  O17      1.0000 0.58563  0.59601  0.57739  Biso   1.000  O
  O18      1.0000 0.60121  0.90175  0.91817  Biso   1.000  O
  O19      1.0000 0.92422  0.59396  0.57926  Biso   1.000  O
  O20      1.0000 0.94025  0.90380  0.91730  Biso   1.000  O
