data_image0
_cell_length_a       6.6439
_cell_length_b       14.954
_cell_length_c       15.089
_cell_angle_alpha    90
_cell_angle_beta     90
_cell_angle_gamma    90.891

_symmetry_space_group_name_H-M    P 1
_symmetry_int_tables_number       1

loop_
  _symmetry_equiv_pos_as_xyz
  'x, y, z'

loop_
  _atom_site_label
  _atom_site_occupancy
  _atom_site_fract_x
  _atom_site_fract_y
  _atom_site_fract_z
  _atom_site_thermal_displace_type
  _atom_site_B_iso_or_equiv
  _atom_site_type_symbol
  Al1      1.0000 0.00000  0.00000  0.00000  Biso   1.000  Al
  Al2      1.0000 0.50000  0.50000  0.50000  Biso   1.000  Al
  Al3      1.0000 0.50000  0.00000  0.00000  Biso   1.000  Al
  Al4      1.0000 0.00000  0.50000  0.50000  Biso   1.000  Al
  H1       1.0000 0.74914  0.89654  0.02753  Biso   1.000  H
  H2       1.0000 0.56869  0.21458  0.37471  Biso   1.000  H
  H3       1.0000 0.57627  0.11246  0.25942  Biso   1.000  H
  H4       1.0000 0.93498  0.37892  0.23834  Biso   1.000  H
  H5       1.0000 0.94267  0.27686  0.12300  Biso   1.000  H
  H6       1.0000 0.75086  0.60346  0.52753  Biso   1.000  H
  H7       1.0000 0.93131  0.28542  0.87471  Biso   1.000  H
  H8       1.0000 0.92373  0.38754  0.75942  Biso   1.000  H
  H9       1.0000 0.56502  0.12108  0.73834  Biso   1.000  H
  H10      1.0000 0.55733  0.22314  0.62300  Biso   1.000  H
  H11      1.0000 0.25086  0.10346  0.97247  Biso   1.000  H
  H12      1.0000 0.43131  0.78542  0.62529  Biso   1.000  H
  H13      1.0000 0.42373  0.88754  0.74058  Biso   1.000  H
  H14      1.0000 0.06502  0.62108  0.76166  Biso   1.000  H
  H15      1.0000 0.05733  0.72314  0.87700  Biso   1.000  H
  H16      1.0000 0.24914  0.39654  0.47247  Biso   1.000  H
  H17      1.0000 0.06869  0.71458  0.12529  Biso   1.000  H
  H18      1.0000 0.07627  0.61246  0.24058  Biso   1.000  H
  H19      1.0000 0.43498  0.87892  0.26166  Biso   1.000  H
  H20      1.0000 0.44267  0.77686  0.37700  Biso   1.000  H
  C1       1.0000 0.73591  0.37493  0.38966  Biso   1.000  C
  C2       1.0000 0.74728  0.30753  0.31677  Biso   1.000  C
  C3       1.0000 0.64274  0.22737  0.32380  Biso   1.000  C
  C4       1.0000 0.75777  0.12059  0.10382  Biso   1.000  C
  C5       1.0000 0.76078  0.18445  0.17995  Biso   1.000  C
  C6       1.0000 0.64829  0.16604  0.25510  Biso   1.000  C
  C7       1.0000 0.86166  0.32560  0.24229  Biso   1.000  C
  C8       1.0000 0.86734  0.26432  0.17354  Biso   1.000  C
  C9       1.0000 0.76409  0.12507  0.88966  Biso   1.000  C
  C10      1.0000 0.75272  0.19247  0.81677  Biso   1.000  C
  C11      1.0000 0.85726  0.27263  0.82380  Biso   1.000  C
  C12      1.0000 0.74223  0.37941  0.60382  Biso   1.000  C
  C13      1.0000 0.73922  0.31555  0.67995  Biso   1.000  C
  C14      1.0000 0.85171  0.33396  0.75510  Biso   1.000  C
  C15      1.0000 0.63834  0.17440  0.74229  Biso   1.000  C
  C16      1.0000 0.63266  0.23568  0.67354  Biso   1.000  C
  C17      1.0000 0.26409  0.62507  0.61034  Biso   1.000  C
  C18      1.0000 0.25272  0.69247  0.68323  Biso   1.000  C
  C19      1.0000 0.35726  0.77263  0.67620  Biso   1.000  C
  C20      1.0000 0.24223  0.87941  0.89618  Biso   1.000  C
  C21      1.0000 0.23922  0.81555  0.82005  Biso   1.000  C
  C22      1.0000 0.35171  0.83396  0.74490  Biso   1.000  C
  C23      1.0000 0.13834  0.67440  0.75771  Biso   1.000  C
  C24      1.0000 0.13266  0.73568  0.82646  Biso   1.000  C
  C25      1.0000 0.23591  0.87493  0.11034  Biso   1.000  C
  C26      1.0000 0.24728  0.80753  0.18323  Biso   1.000  C
  C27      1.0000 0.14274  0.72737  0.17620  Biso   1.000  C
  C28      1.0000 0.25777  0.62059  0.39618  Biso   1.000  C
  C29      1.0000 0.26078  0.68445  0.32005  Biso   1.000  C
  C30      1.0000 0.14829  0.66604  0.24490  Biso   1.000  C
  C31      1.0000 0.36166  0.82560  0.25771  Biso   1.000  C
  C32      1.0000 0.36734  0.76432  0.32646  Biso   1.000  C
  O1       1.0000 0.75077  0.94799  0.01019  Biso   1.000  O
  O2       1.0000 0.92500  0.09544  0.07478  Biso   1.000  O
  O3       1.0000 0.88399  0.42765  0.39896  Biso   1.000  O
  O4       1.0000 0.58819  0.09544  0.07545  Biso   1.000  O
  O5       1.0000 0.57943  0.37391  0.43677  Biso   1.000  O
  O6       1.0000 0.74923  0.55201  0.51019  Biso   1.000  O
  O7       1.0000 0.57500  0.40456  0.57478  Biso   1.000  O
  O8       1.0000 0.61601  0.07235  0.89896  Biso   1.000  O
  O9       1.0000 0.91181  0.40456  0.57545  Biso   1.000  O
  O10      1.0000 0.92057  0.12609  0.93677  Biso   1.000  O
  O11      1.0000 0.24923  0.05201  0.98981  Biso   1.000  O
  O12      1.0000 0.07500  0.90456  0.92522  Biso   1.000  O
  O13      1.0000 0.11601  0.57235  0.60104  Biso   1.000  O
  O14      1.0000 0.41181  0.90456  0.92455  Biso   1.000  O
  O15      1.0000 0.42057  0.62609  0.56323  Biso   1.000  O
  O16      1.0000 0.25077  0.44799  0.48981  Biso   1.000  O
  O17      1.0000 0.42500  0.59544  0.42522  Biso   1.000  O
  O18      1.0000 0.38399  0.92765  0.10104  Biso   1.000  O
  O19      1.0000 0.08819  0.59544  0.42455  Biso   1.000  O
  O20      1.0000 0.07943  0.87391  0.06323  Biso   1.000  O
