data_image0
_cell_length_a       29.243
_cell_length_b       10.394
_cell_length_c       26.164
_cell_angle_alpha    90
_cell_angle_beta     114.57
_cell_angle_gamma    90

_symmetry_space_group_name_H-M    "P 1"
_symmetry_int_tables_number       1

loop_
  _symmetry_equiv_pos_as_xyz
  'x, y, z'

loop_
  _atom_site_label
  _atom_site_occupancy
  _atom_site_fract_x
  _atom_site_fract_y
  _atom_site_fract_z
  _atom_site_thermal_displace_type
  _atom_site_B_iso_or_equiv
  _atom_site_type_symbol
  Zn1      1.0000 0.82090  0.62825  0.25307  Biso   1.000  Zn
  K1       1.0000 0.77383  0.36425  0.31349  Biso   1.000  K
  O1       1.0000 0.10820  0.79200  0.27460  Biso   1.000  O
  O2       1.0000 0.18610  0.73330  0.31310  Biso   1.000  O
  O3       1.0000 0.06660  0.03400  0.28630  Biso   1.000  O
  O4       1.0000 0.03260  0.90800  0.32850  Biso   1.000  O
  O5       1.0000 0.20350  0.38920  0.67090  Biso   1.000  O
  O6       1.0000 0.19600  0.20940  0.70850  Biso   1.000  O
  O7       1.0000 0.27901  0.02000  0.70890  Biso   1.000  O
  O8       1.0000 0.21210  0.89200  0.67880  Biso   1.000  O
  O9       1.0000 0.00610  0.20300  0.31920  Biso   1.000  O
  O10      1.0000 0.94480  0.33580  0.26970  Biso   1.000  O
  O11      1.0000 0.88850  0.57080  0.30320  Biso   1.000  O
  O12      1.0000 0.86450  0.36980  0.31130  Biso   1.000  O
  C1       1.0000 0.17670  0.00010  0.46740  Biso   1.000  C
  C2       1.0000 0.13080  0.00780  0.42080  Biso   1.000  C
  H1       1.0000 0.10570  0.06050  0.42250  Biso   1.000  H
  C3       1.0000 0.12120  0.93950  0.37210  Biso   1.000  C
  C4       1.0000 0.15830  0.86190  0.36830  Biso   1.000  C
  C5       1.0000 0.20450  0.85360  0.41460  Biso   1.000  C
  H2       1.0000 0.22970  0.80210  0.41260  Biso   1.000  H
  C6       1.0000 0.21360  0.92080  0.46360  Biso   1.000  C
  H3       1.0000 0.24460  0.91290  0.49420  Biso   1.000  H
  C7       1.0000 0.06940  0.95880  0.32500  Biso   1.000  C
  C8       1.0000 0.14900  0.78190  0.31760  Biso   1.000  C
  C9       1.0000 0.18530  0.07050  0.51970  Biso   1.000  C
  C10      1.0000 0.20480  0.00530  0.57150  Biso   1.000  C
  H4       1.0000 0.21260  0.91840  0.57250  Biso   1.000  H
  C11      1.0000 0.21240  0.06830  0.62080  Biso   1.000  C
  C12      1.0000 0.19980  0.19840  0.62010  Biso   1.000  C
  C13      1.0000 0.18120  0.26320  0.56870  Biso   1.000  C
  H5       1.0000 0.17360  0.35030  0.56750  Biso   1.000  H
  C14      1.0000 0.17400  0.19970  0.51950  Biso   1.000  C
  H6       1.0000 0.16130  0.24470  0.48570  Biso   1.000  H
  C15      1.0000 0.23380  0.98730  0.67350  Biso   1.000  C
  C16      1.0000 0.20030  0.26870  0.66960  Biso   1.000  C
  C17      1.0000 0.99670  0.47000  0.47270  Biso   1.000  C
  C18      1.0000 0.95310  0.49180  0.42370  Biso   1.000  C
  H7       1.0000 0.92810  0.54510  0.42530  Biso   1.000  H
  C19      1.0000 0.94620  0.43530  0.37270  Biso   1.000  C
  C20      1.0000 0.98260  0.35530  0.36940  Biso   1.000  C
  C21      1.0000 0.02560  0.33630  0.41720  Biso   1.000  C
  H8       1.0000 0.05050  0.28370  0.41530  Biso   1.000  H
  C22      1.0000 0.03340  0.39150  0.46790  Biso   1.000  C
  H9       1.0000 0.06340  0.37650  0.49920  Biso   1.000  H
  C23      1.0000 0.89520  0.45910  0.32380  Biso   1.000  C
  C24      1.0000 0.97670  0.29570  0.31460  Biso   1.000  C
  O13      1.0000 0.82250  0.36780  0.42840  Biso   1.000  O
  N1       1.0000 0.88840  0.30520  0.50270  Biso   1.000  N
  C25      1.0000 0.86140  0.30950  0.44950  Biso   1.000  C
  H10      1.0000 0.87260  0.26520  0.42610  Biso   1.000  H
  C26      1.0000 0.93330  0.23890  0.53050  Biso   1.000  C
  H11      1.0000 0.94550  0.20910  0.50380  Biso   1.000  H
  H12      1.0000 0.92760  0.16660  0.55000  Biso   1.000  H
  H13      1.0000 0.95770  0.29520  0.55710  Biso   1.000  H
  C27      1.0000 0.87420  0.37780  0.53960  Biso   1.000  C
  H14      1.0000 0.83820  0.38040  0.52520  Biso   1.000  H
  H15      1.0000 0.88700  0.46380  0.54240  Biso   1.000  H
  H16      1.0000 0.88780  0.33840  0.57610  Biso   1.000  H
  O14      1.0000 0.10540  0.74040  0.29050  Biso   1.000  O
  Zn2      1.0000 0.32090  0.12825  0.25307  Biso   1.000  Zn
  K2       1.0000 0.27383  0.86425  0.31349  Biso   1.000  K
  O15      1.0000 0.60820  0.29200  0.27460  Biso   1.000  O
  O16      1.0000 0.68610  0.23330  0.31310  Biso   1.000  O
  O17      1.0000 0.56660  0.53400  0.28630  Biso   1.000  O
  O18      1.0000 0.53260  0.40800  0.32850  Biso   1.000  O
  O19      1.0000 0.70350  0.88920  0.67090  Biso   1.000  O
  O20      1.0000 0.69600  0.70940  0.70850  Biso   1.000  O
  O21      1.0000 0.77901  0.52000  0.70890  Biso   1.000  O
  O22      1.0000 0.71210  0.39200  0.67880  Biso   1.000  O
  O23      1.0000 0.50610  0.70300  0.31920  Biso   1.000  O
  O24      1.0000 0.44480  0.83580  0.26970  Biso   1.000  O
  O25      1.0000 0.38850  0.07080  0.30320  Biso   1.000  O
  O26      1.0000 0.36450  0.86980  0.31130  Biso   1.000  O
  C28      1.0000 0.67670  0.50010  0.46740  Biso   1.000  C
  C29      1.0000 0.63080  0.50780  0.42080  Biso   1.000  C
  H17      1.0000 0.60570  0.56050  0.42250  Biso   1.000  H
  C30      1.0000 0.62120  0.43950  0.37210  Biso   1.000  C
  C31      1.0000 0.65830  0.36190  0.36830  Biso   1.000  C
  C32      1.0000 0.70450  0.35360  0.41460  Biso   1.000  C
  H18      1.0000 0.72970  0.30210  0.41260  Biso   1.000  H
  C33      1.0000 0.71360  0.42080  0.46360  Biso   1.000  C
  H19      1.0000 0.74460  0.41290  0.49420  Biso   1.000  H
  C34      1.0000 0.56940  0.45880  0.32500  Biso   1.000  C
  C35      1.0000 0.64900  0.28190  0.31760  Biso   1.000  C
  C36      1.0000 0.68530  0.57050  0.51970  Biso   1.000  C
  C37      1.0000 0.70480  0.50530  0.57150  Biso   1.000  C
  H20      1.0000 0.71260  0.41840  0.57250  Biso   1.000  H
  C38      1.0000 0.71240  0.56830  0.62080  Biso   1.000  C
  C39      1.0000 0.69980  0.69840  0.62010  Biso   1.000  C
  C40      1.0000 0.68120  0.76320  0.56870  Biso   1.000  C
  H21      1.0000 0.67360  0.85030  0.56750  Biso   1.000  H
  C41      1.0000 0.67400  0.69970  0.51950  Biso   1.000  C
  H22      1.0000 0.66130  0.74470  0.48570  Biso   1.000  H
  C42      1.0000 0.73380  0.48730  0.67350  Biso   1.000  C
  C43      1.0000 0.70030  0.76870  0.66960  Biso   1.000  C
  C44      1.0000 0.49670  0.97000  0.47270  Biso   1.000  C
  C45      1.0000 0.45310  0.99180  0.42370  Biso   1.000  C
  H23      1.0000 0.42810  0.04510  0.42530  Biso   1.000  H
  C46      1.0000 0.44620  0.93530  0.37270  Biso   1.000  C
  C47      1.0000 0.48260  0.85530  0.36940  Biso   1.000  C
  C48      1.0000 0.52560  0.83630  0.41720  Biso   1.000  C
  H24      1.0000 0.55050  0.78370  0.41530  Biso   1.000  H
  C49      1.0000 0.53340  0.89150  0.46790  Biso   1.000  C
  H25      1.0000 0.56340  0.87650  0.49920  Biso   1.000  H
  C50      1.0000 0.39520  0.95910  0.32380  Biso   1.000  C
  C51      1.0000 0.47670  0.79570  0.31460  Biso   1.000  C
  O27      1.0000 0.32250  0.86780  0.42840  Biso   1.000  O
  N2       1.0000 0.38840  0.80520  0.50270  Biso   1.000  N
  C52      1.0000 0.36140  0.80950  0.44950  Biso   1.000  C
  H26      1.0000 0.37260  0.76520  0.42610  Biso   1.000  H
  C53      1.0000 0.43330  0.73890  0.53050  Biso   1.000  C
  H27      1.0000 0.44550  0.70910  0.50380  Biso   1.000  H
  H28      1.0000 0.42760  0.66660  0.55000  Biso   1.000  H
  H29      1.0000 0.45770  0.79520  0.55710  Biso   1.000  H
  C54      1.0000 0.37420  0.87780  0.53960  Biso   1.000  C
  H30      1.0000 0.33820  0.88040  0.52520  Biso   1.000  H
  H31      1.0000 0.38700  0.96380  0.54240  Biso   1.000  H
  H32      1.0000 0.38780  0.83840  0.57610  Biso   1.000  H
  O28      1.0000 0.60540  0.24040  0.29050  Biso   1.000  O
  Zn3      1.0000 0.17910  0.62825  0.24693  Biso   1.000  Zn
  K3       1.0000 0.22617  0.36425  0.18651  Biso   1.000  K
  O29      1.0000 0.89180  0.79200  0.22540  Biso   1.000  O
  O30      1.0000 0.81390  0.73330  0.18690  Biso   1.000  O
  O31      1.0000 0.93340  0.03400  0.21370  Biso   1.000  O
  O32      1.0000 0.96740  0.90800  0.17150  Biso   1.000  O
  O33      1.0000 0.79650  0.38920  0.82910  Biso   1.000  O
  O34      1.0000 0.80400  0.20940  0.79150  Biso   1.000  O
  O35      1.0000 0.72099  0.02000  0.79110  Biso   1.000  O
  O36      1.0000 0.78790  0.89200  0.82120  Biso   1.000  O
  O37      1.0000 0.99390  0.20300  0.18080  Biso   1.000  O
  O38      1.0000 0.05520  0.33580  0.23030  Biso   1.000  O
  O39      1.0000 0.11150  0.57080  0.19680  Biso   1.000  O
  O40      1.0000 0.13550  0.36980  0.18870  Biso   1.000  O
  C55      1.0000 0.82330  0.00010  0.03260  Biso   1.000  C
  C56      1.0000 0.86920  0.00780  0.07920  Biso   1.000  C
  H33      1.0000 0.89430  0.06050  0.07750  Biso   1.000  H
  C57      1.0000 0.87880  0.93950  0.12790  Biso   1.000  C
  C58      1.0000 0.84170  0.86190  0.13170  Biso   1.000  C
  C59      1.0000 0.79550  0.85360  0.08540  Biso   1.000  C
  H34      1.0000 0.77030  0.80210  0.08740  Biso   1.000  H
  C60      1.0000 0.78640  0.92080  0.03640  Biso   1.000  C
  H35      1.0000 0.75540  0.91290  0.00580  Biso   1.000  H
  C61      1.0000 0.93060  0.95880  0.17500  Biso   1.000  C
  C62      1.0000 0.85100  0.78190  0.18240  Biso   1.000  C
  C63      1.0000 0.81470  0.07050  0.98030  Biso   1.000  C
  C64      1.0000 0.79520  0.00530  0.92850  Biso   1.000  C
  H36      1.0000 0.78740  0.91840  0.92750  Biso   1.000  H
  C65      1.0000 0.78760  0.06830  0.87920  Biso   1.000  C
  C66      1.0000 0.80020  0.19840  0.87990  Biso   1.000  C
  C67      1.0000 0.81880  0.26320  0.93130  Biso   1.000  C
  H37      1.0000 0.82640  0.35030  0.93250  Biso   1.000  H
  C68      1.0000 0.82600  0.19970  0.98050  Biso   1.000  C
  H38      1.0000 0.83870  0.24470  0.01430  Biso   1.000  H
  C69      1.0000 0.76620  0.98730  0.82650  Biso   1.000  C
  C70      1.0000 0.79970  0.26870  0.83040  Biso   1.000  C
  C71      1.0000 0.00330  0.47000  0.02730  Biso   1.000  C
  C72      1.0000 0.04690  0.49180  0.07630  Biso   1.000  C
  H39      1.0000 0.07190  0.54510  0.07470  Biso   1.000  H
  C73      1.0000 0.05380  0.43530  0.12730  Biso   1.000  C
  C74      1.0000 0.01740  0.35530  0.13060  Biso   1.000  C
  C75      1.0000 0.97440  0.33630  0.08280  Biso   1.000  C
  H40      1.0000 0.94950  0.28370  0.08470  Biso   1.000  H
  C76      1.0000 0.96660  0.39150  0.03210  Biso   1.000  C
  H41      1.0000 0.93660  0.37650  0.00080  Biso   1.000  H
  C77      1.0000 0.10480  0.45910  0.17620  Biso   1.000  C
  C78      1.0000 0.02330  0.29570  0.18540  Biso   1.000  C
  O41      1.0000 0.17750  0.36780  0.07160  Biso   1.000  O
  N3       1.0000 0.11160  0.30520  0.99730  Biso   1.000  N
  C79      1.0000 0.13860  0.30950  0.05050  Biso   1.000  C
  H42      1.0000 0.12740  0.26520  0.07390  Biso   1.000  H
  C80      1.0000 0.06670  0.23890  0.96950  Biso   1.000  C
  H43      1.0000 0.05450  0.20910  0.99620  Biso   1.000  H
  H44      1.0000 0.07240  0.16660  0.95000  Biso   1.000  H
  H45      1.0000 0.04230  0.29520  0.94290  Biso   1.000  H
  C81      1.0000 0.12580  0.37780  0.96040  Biso   1.000  C
  H46      1.0000 0.16180  0.38040  0.97480  Biso   1.000  H
  H47      1.0000 0.11300  0.46380  0.95760  Biso   1.000  H
  H48      1.0000 0.11220  0.33840  0.92390  Biso   1.000  H
  O42      1.0000 0.89460  0.74040  0.20950  Biso   1.000  O
  Zn4      1.0000 0.67910  0.12825  0.24693  Biso   1.000  Zn
  K4       1.0000 0.72617  0.86425  0.18651  Biso   1.000  K
  O43      1.0000 0.39180  0.29200  0.22540  Biso   1.000  O
  O44      1.0000 0.31390  0.23330  0.18690  Biso   1.000  O
  O45      1.0000 0.43340  0.53400  0.21370  Biso   1.000  O
  O46      1.0000 0.46740  0.40800  0.17150  Biso   1.000  O
  O47      1.0000 0.29650  0.88920  0.82910  Biso   1.000  O
  O48      1.0000 0.30400  0.70940  0.79150  Biso   1.000  O
  O49      1.0000 0.22099  0.52000  0.79110  Biso   1.000  O
  O50      1.0000 0.28790  0.39200  0.82120  Biso   1.000  O
  O51      1.0000 0.49390  0.70300  0.18080  Biso   1.000  O
  O52      1.0000 0.55520  0.83580  0.23030  Biso   1.000  O
  O53      1.0000 0.61150  0.07080  0.19680  Biso   1.000  O
  O54      1.0000 0.63550  0.86980  0.18870  Biso   1.000  O
  C82      1.0000 0.32330  0.50010  0.03260  Biso   1.000  C
  C83      1.0000 0.36920  0.50780  0.07920  Biso   1.000  C
  H49      1.0000 0.39430  0.56050  0.07750  Biso   1.000  H
  C84      1.0000 0.37880  0.43950  0.12790  Biso   1.000  C
  C85      1.0000 0.34170  0.36190  0.13170  Biso   1.000  C
  C86      1.0000 0.29550  0.35360  0.08540  Biso   1.000  C
  H50      1.0000 0.27030  0.30210  0.08740  Biso   1.000  H
  C87      1.0000 0.28640  0.42080  0.03640  Biso   1.000  C
  H51      1.0000 0.25540  0.41290  0.00580  Biso   1.000  H
  C88      1.0000 0.43060  0.45880  0.17500  Biso   1.000  C
  C89      1.0000 0.35100  0.28190  0.18240  Biso   1.000  C
  C90      1.0000 0.31470  0.57050  0.98030  Biso   1.000  C
  C91      1.0000 0.29520  0.50530  0.92850  Biso   1.000  C
  H52      1.0000 0.28740  0.41840  0.92750  Biso   1.000  H
  C92      1.0000 0.28760  0.56830  0.87920  Biso   1.000  C
  C93      1.0000 0.30020  0.69840  0.87990  Biso   1.000  C
  C94      1.0000 0.31880  0.76320  0.93130  Biso   1.000  C
  H53      1.0000 0.32640  0.85030  0.93250  Biso   1.000  H
  C95      1.0000 0.32600  0.69970  0.98050  Biso   1.000  C
  H54      1.0000 0.33870  0.74470  0.01430  Biso   1.000  H
  C96      1.0000 0.26620  0.48730  0.82650  Biso   1.000  C
  C97      1.0000 0.29970  0.76870  0.83040  Biso   1.000  C
  C98      1.0000 0.50330  0.97000  0.02730  Biso   1.000  C
  C99      1.0000 0.54690  0.99180  0.07630  Biso   1.000  C
  H55      1.0000 0.57190  0.04510  0.07470  Biso   1.000  H
  C100     1.0000 0.55380  0.93530  0.12730  Biso   1.000  C
  C101     1.0000 0.51740  0.85530  0.13060  Biso   1.000  C
  C102     1.0000 0.47440  0.83630  0.08280  Biso   1.000  C
  H56      1.0000 0.44950  0.78370  0.08470  Biso   1.000  H
  C103     1.0000 0.46660  0.89150  0.03210  Biso   1.000  C
  H57      1.0000 0.43660  0.87650  0.00080  Biso   1.000  H
  C104     1.0000 0.60480  0.95910  0.17620  Biso   1.000  C
  C105     1.0000 0.52330  0.79570  0.18540  Biso   1.000  C
  O55      1.0000 0.67750  0.86780  0.07160  Biso   1.000  O
  N4       1.0000 0.61160  0.80520  0.99730  Biso   1.000  N
  C106     1.0000 0.63860  0.80950  0.05050  Biso   1.000  C
  H58      1.0000 0.62740  0.76520  0.07390  Biso   1.000  H
  C107     1.0000 0.56670  0.73890  0.96950  Biso   1.000  C
  H59      1.0000 0.55450  0.70910  0.99620  Biso   1.000  H
  H60      1.0000 0.57240  0.66660  0.95000  Biso   1.000  H
  H61      1.0000 0.54230  0.79520  0.94290  Biso   1.000  H
  C108     1.0000 0.62580  0.87780  0.96040  Biso   1.000  C
  H62      1.0000 0.66180  0.88040  0.97480  Biso   1.000  H
  H63      1.0000 0.61300  0.96380  0.95760  Biso   1.000  H
  H64      1.0000 0.61220  0.83840  0.92390  Biso   1.000  H
  O56      1.0000 0.39460  0.24040  0.20950  Biso   1.000  O
  Zn5      1.0000 0.17910  0.37175  0.74693  Biso   1.000  Zn
  K5       1.0000 0.22617  0.63575  0.68651  Biso   1.000  K
  O57      1.0000 0.89180  0.20800  0.72540  Biso   1.000  O
  O58      1.0000 0.81390  0.26670  0.68690  Biso   1.000  O
  O59      1.0000 0.93340  0.96600  0.71370  Biso   1.000  O
  O60      1.0000 0.96740  0.09200  0.67150  Biso   1.000  O
  O61      1.0000 0.79650  0.61080  0.32910  Biso   1.000  O
  O62      1.0000 0.80400  0.79060  0.29150  Biso   1.000  O
  O63      1.0000 0.72099  0.98000  0.29110  Biso   1.000  O
  O64      1.0000 0.78790  0.10800  0.32120  Biso   1.000  O
  O65      1.0000 0.99390  0.79700  0.68080  Biso   1.000  O
  O66      1.0000 0.05520  0.66420  0.73030  Biso   1.000  O
  O67      1.0000 0.11150  0.42920  0.69680  Biso   1.000  O
  O68      1.0000 0.13550  0.63020  0.68870  Biso   1.000  O
  C109     1.0000 0.82330  0.99990  0.53260  Biso   1.000  C
  C110     1.0000 0.86920  0.99220  0.57920  Biso   1.000  C
  H65      1.0000 0.89430  0.93950  0.57750  Biso   1.000  H
  C111     1.0000 0.87880  0.06050  0.62790  Biso   1.000  C
  C112     1.0000 0.84170  0.13810  0.63170  Biso   1.000  C
  C113     1.0000 0.79550  0.14640  0.58540  Biso   1.000  C
  H66      1.0000 0.77030  0.19790  0.58740  Biso   1.000  H
  C114     1.0000 0.78640  0.07920  0.53640  Biso   1.000  C
  H67      1.0000 0.75540  0.08710  0.50580  Biso   1.000  H
  C115     1.0000 0.93060  0.04120  0.67500  Biso   1.000  C
  C116     1.0000 0.85100  0.21810  0.68240  Biso   1.000  C
  C117     1.0000 0.81470  0.92950  0.48030  Biso   1.000  C
  C118     1.0000 0.79520  0.99470  0.42850  Biso   1.000  C
  H68      1.0000 0.78740  0.08160  0.42750  Biso   1.000  H
  C119     1.0000 0.78760  0.93170  0.37920  Biso   1.000  C
  C120     1.0000 0.80020  0.80160  0.37990  Biso   1.000  C
  C121     1.0000 0.81880  0.73680  0.43130  Biso   1.000  C
  H69      1.0000 0.82640  0.64970  0.43250  Biso   1.000  H
  C122     1.0000 0.82600  0.80030  0.48050  Biso   1.000  C
  H70      1.0000 0.83870  0.75530  0.51430  Biso   1.000  H
  C123     1.0000 0.76620  0.01270  0.32650  Biso   1.000  C
  C124     1.0000 0.79970  0.73130  0.33040  Biso   1.000  C
  C125     1.0000 0.00330  0.53000  0.52730  Biso   1.000  C
  C126     1.0000 0.04690  0.50820  0.57630  Biso   1.000  C
  H71      1.0000 0.07190  0.45490  0.57470  Biso   1.000  H
  C127     1.0000 0.05380  0.56470  0.62730  Biso   1.000  C
  C128     1.0000 0.01740  0.64470  0.63060  Biso   1.000  C
  C129     1.0000 0.97440  0.66370  0.58280  Biso   1.000  C
  H72      1.0000 0.94950  0.71630  0.58470  Biso   1.000  H
  C130     1.0000 0.96660  0.60850  0.53210  Biso   1.000  C
  H73      1.0000 0.93660  0.62350  0.50080  Biso   1.000  H
  C131     1.0000 0.10480  0.54090  0.67620  Biso   1.000  C
  C132     1.0000 0.02330  0.70430  0.68540  Biso   1.000  C
  O69      1.0000 0.17750  0.63220  0.57160  Biso   1.000  O
  N5       1.0000 0.11160  0.69480  0.49730  Biso   1.000  N
  C133     1.0000 0.13860  0.69050  0.55050  Biso   1.000  C
  H74      1.0000 0.12740  0.73480  0.57390  Biso   1.000  H
  C134     1.0000 0.06670  0.76110  0.46950  Biso   1.000  C
  H75      1.0000 0.05450  0.79090  0.49620  Biso   1.000  H
  H76      1.0000 0.07240  0.83340  0.45000  Biso   1.000  H
  H77      1.0000 0.04230  0.70480  0.44290  Biso   1.000  H
  C135     1.0000 0.12580  0.62220  0.46040  Biso   1.000  C
  H78      1.0000 0.16180  0.61960  0.47480  Biso   1.000  H
  H79      1.0000 0.11300  0.53620  0.45760  Biso   1.000  H
  H80      1.0000 0.11220  0.66160  0.42390  Biso   1.000  H
  O70      1.0000 0.89460  0.25960  0.70950  Biso   1.000  O
  Zn6      1.0000 0.67910  0.87175  0.74693  Biso   1.000  Zn
  K6       1.0000 0.72617  0.13575  0.68651  Biso   1.000  K
  O71      1.0000 0.39180  0.70800  0.72540  Biso   1.000  O
  O72      1.0000 0.31390  0.76670  0.68690  Biso   1.000  O
  O73      1.0000 0.43340  0.46600  0.71370  Biso   1.000  O
  O74      1.0000 0.46740  0.59200  0.67150  Biso   1.000  O
  O75      1.0000 0.29650  0.11080  0.32910  Biso   1.000  O
  O76      1.0000 0.30400  0.29060  0.29150  Biso   1.000  O
  O77      1.0000 0.22099  0.48000  0.29110  Biso   1.000  O
  O78      1.0000 0.28790  0.60800  0.32120  Biso   1.000  O
  O79      1.0000 0.49390  0.29700  0.68080  Biso   1.000  O
  O80      1.0000 0.55520  0.16420  0.73030  Biso   1.000  O
  O81      1.0000 0.61150  0.92920  0.69680  Biso   1.000  O
  O82      1.0000 0.63550  0.13020  0.68870  Biso   1.000  O
  C136     1.0000 0.32330  0.49990  0.53260  Biso   1.000  C
  C137     1.0000 0.36920  0.49220  0.57920  Biso   1.000  C
  H81      1.0000 0.39430  0.43950  0.57750  Biso   1.000  H
  C138     1.0000 0.37880  0.56050  0.62790  Biso   1.000  C
  C139     1.0000 0.34170  0.63810  0.63170  Biso   1.000  C
  C140     1.0000 0.29550  0.64640  0.58540  Biso   1.000  C
  H82      1.0000 0.27030  0.69790  0.58740  Biso   1.000  H
  C141     1.0000 0.28640  0.57920  0.53640  Biso   1.000  C
  H83      1.0000 0.25540  0.58710  0.50580  Biso   1.000  H
  C142     1.0000 0.43060  0.54120  0.67500  Biso   1.000  C
  C143     1.0000 0.35100  0.71810  0.68240  Biso   1.000  C
  C144     1.0000 0.31470  0.42950  0.48030  Biso   1.000  C
  C145     1.0000 0.29520  0.49470  0.42850  Biso   1.000  C
  H84      1.0000 0.28740  0.58160  0.42750  Biso   1.000  H
  C146     1.0000 0.28760  0.43170  0.37920  Biso   1.000  C
  C147     1.0000 0.30020  0.30160  0.37990  Biso   1.000  C
  C148     1.0000 0.31880  0.23680  0.43130  Biso   1.000  C
  H85      1.0000 0.32640  0.14970  0.43250  Biso   1.000  H
  C149     1.0000 0.32600  0.30030  0.48050  Biso   1.000  C
  H86      1.0000 0.33870  0.25530  0.51430  Biso   1.000  H
  C150     1.0000 0.26620  0.51270  0.32650  Biso   1.000  C
  C151     1.0000 0.29970  0.23130  0.33040  Biso   1.000  C
  C152     1.0000 0.50330  0.03000  0.52730  Biso   1.000  C
  C153     1.0000 0.54690  0.00820  0.57630  Biso   1.000  C
  H87      1.0000 0.57190  0.95490  0.57470  Biso   1.000  H
  C154     1.0000 0.55380  0.06470  0.62730  Biso   1.000  C
  C155     1.0000 0.51740  0.14470  0.63060  Biso   1.000  C
  C156     1.0000 0.47440  0.16370  0.58280  Biso   1.000  C
  H88      1.0000 0.44950  0.21630  0.58470  Biso   1.000  H
  C157     1.0000 0.46660  0.10850  0.53210  Biso   1.000  C
  H89      1.0000 0.43660  0.12350  0.50080  Biso   1.000  H
  C158     1.0000 0.60480  0.04090  0.67620  Biso   1.000  C
  C159     1.0000 0.52330  0.20430  0.68540  Biso   1.000  C
  O83      1.0000 0.67750  0.13220  0.57160  Biso   1.000  O
  N6       1.0000 0.61160  0.19480  0.49730  Biso   1.000  N
  C160     1.0000 0.63860  0.19050  0.55050  Biso   1.000  C
  H90      1.0000 0.62740  0.23480  0.57390  Biso   1.000  H
  C161     1.0000 0.56670  0.26110  0.46950  Biso   1.000  C
  H91      1.0000 0.55450  0.29090  0.49620  Biso   1.000  H
  H92      1.0000 0.57240  0.33340  0.45000  Biso   1.000  H
  H93      1.0000 0.54230  0.20480  0.44290  Biso   1.000  H
  C162     1.0000 0.62580  0.12220  0.46040  Biso   1.000  C
  H94      1.0000 0.66180  0.11960  0.47480  Biso   1.000  H
  H95      1.0000 0.61300  0.03620  0.45760  Biso   1.000  H
  H96      1.0000 0.61220  0.16160  0.42390  Biso   1.000  H
  O84      1.0000 0.39460  0.75960  0.70950  Biso   1.000  O
  Zn7      1.0000 0.82090  0.37175  0.75307  Biso   1.000  Zn
  K7       1.0000 0.77383  0.63575  0.81349  Biso   1.000  K
  O85      1.0000 0.10820  0.20800  0.77460  Biso   1.000  O
  O86      1.0000 0.18610  0.26670  0.81310  Biso   1.000  O
  O87      1.0000 0.06660  0.96600  0.78630  Biso   1.000  O
  O88      1.0000 0.03260  0.09200  0.82850  Biso   1.000  O
  O89      1.0000 0.20350  0.61080  0.17090  Biso   1.000  O
  O90      1.0000 0.19600  0.79060  0.20850  Biso   1.000  O
  O91      1.0000 0.27901  0.98000  0.20890  Biso   1.000  O
  O92      1.0000 0.21210  0.10800  0.17880  Biso   1.000  O
  O93      1.0000 0.00610  0.79700  0.81920  Biso   1.000  O
  O94      1.0000 0.94480  0.66420  0.76970  Biso   1.000  O
  O95      1.0000 0.88850  0.42920  0.80320  Biso   1.000  O
  O96      1.0000 0.86450  0.63020  0.81130  Biso   1.000  O
  C163     1.0000 0.17670  0.99990  0.96740  Biso   1.000  C
  C164     1.0000 0.13080  0.99220  0.92080  Biso   1.000  C
  H97      1.0000 0.10570  0.93950  0.92250  Biso   1.000  H
  C165     1.0000 0.12120  0.06050  0.87210  Biso   1.000  C
  C166     1.0000 0.15830  0.13810  0.86830  Biso   1.000  C
  C167     1.0000 0.20450  0.14640  0.91460  Biso   1.000  C
  H98      1.0000 0.22970  0.19790  0.91260  Biso   1.000  H
  C168     1.0000 0.21360  0.07920  0.96360  Biso   1.000  C
  H99      1.0000 0.24460  0.08710  0.99420  Biso   1.000  H
  C169     1.0000 0.06940  0.04120  0.82500  Biso   1.000  C
  C170     1.0000 0.14900  0.21810  0.81760  Biso   1.000  C
  C171     1.0000 0.18530  0.92950  0.01970  Biso   1.000  C
  C172     1.0000 0.20480  0.99470  0.07150  Biso   1.000  C
  H100     1.0000 0.21260  0.08160  0.07250  Biso   1.000  H
  C173     1.0000 0.21240  0.93170  0.12080  Biso   1.000  C
  C174     1.0000 0.19980  0.80160  0.12010  Biso   1.000  C
  C175     1.0000 0.18120  0.73680  0.06870  Biso   1.000  C
  H101     1.0000 0.17360  0.64970  0.06750  Biso   1.000  H
  C176     1.0000 0.17400  0.80030  0.01950  Biso   1.000  C
  H102     1.0000 0.16130  0.75530  0.98570  Biso   1.000  H
  C177     1.0000 0.23380  0.01270  0.17350  Biso   1.000  C
  C178     1.0000 0.20030  0.73130  0.16960  Biso   1.000  C
  C179     1.0000 0.99670  0.53000  0.97270  Biso   1.000  C
  C180     1.0000 0.95310  0.50820  0.92370  Biso   1.000  C
  H103     1.0000 0.92810  0.45490  0.92530  Biso   1.000  H
  C181     1.0000 0.94620  0.56470  0.87270  Biso   1.000  C
  C182     1.0000 0.98260  0.64470  0.86940  Biso   1.000  C
  C183     1.0000 0.02560  0.66370  0.91720  Biso   1.000  C
  H104     1.0000 0.05050  0.71630  0.91530  Biso   1.000  H
  C184     1.0000 0.03340  0.60850  0.96790  Biso   1.000  C
  H105     1.0000 0.06340  0.62350  0.99920  Biso   1.000  H
  C185     1.0000 0.89520  0.54090  0.82380  Biso   1.000  C
  C186     1.0000 0.97670  0.70430  0.81460  Biso   1.000  C
  O97      1.0000 0.82250  0.63220  0.92840  Biso   1.000  O
  N7       1.0000 0.88840  0.69480  0.00270  Biso   1.000  N
  C187     1.0000 0.86140  0.69050  0.94950  Biso   1.000  C
  H106     1.0000 0.87260  0.73480  0.92610  Biso   1.000  H
  C188     1.0000 0.93330  0.76110  0.03050  Biso   1.000  C
  H107     1.0000 0.94550  0.79090  0.00380  Biso   1.000  H
  H108     1.0000 0.92760  0.83340  0.05000  Biso   1.000  H
  H109     1.0000 0.95770  0.70480  0.05710  Biso   1.000  H
  C189     1.0000 0.87420  0.62220  0.03960  Biso   1.000  C
  H110     1.0000 0.83820  0.61960  0.02520  Biso   1.000  H
  H111     1.0000 0.88700  0.53620  0.04240  Biso   1.000  H
  H112     1.0000 0.88780  0.66160  0.07610  Biso   1.000  H
  O98      1.0000 0.10540  0.25960  0.79050  Biso   1.000  O
  Zn8      1.0000 0.32090  0.87175  0.75307  Biso   1.000  Zn
  K8       1.0000 0.27383  0.13575  0.81349  Biso   1.000  K
  O99      1.0000 0.60820  0.70800  0.77460  Biso   1.000  O
  O100     1.0000 0.68610  0.76670  0.81310  Biso   1.000  O
  O101     1.0000 0.56660  0.46600  0.78630  Biso   1.000  O
  O102     1.0000 0.53260  0.59200  0.82850  Biso   1.000  O
  O103     1.0000 0.70350  0.11080  0.17090  Biso   1.000  O
  O104     1.0000 0.69600  0.29060  0.20850  Biso   1.000  O
  O105     1.0000 0.77901  0.48000  0.20890  Biso   1.000  O
  O106     1.0000 0.71210  0.60800  0.17880  Biso   1.000  O
  O107     1.0000 0.50610  0.29700  0.81920  Biso   1.000  O
  O108     1.0000 0.44480  0.16420  0.76970  Biso   1.000  O
  O109     1.0000 0.38850  0.92920  0.80320  Biso   1.000  O
  O110     1.0000 0.36450  0.13020  0.81130  Biso   1.000  O
  C190     1.0000 0.67670  0.49990  0.96740  Biso   1.000  C
  C191     1.0000 0.63080  0.49220  0.92080  Biso   1.000  C
  H113     1.0000 0.60570  0.43950  0.92250  Biso   1.000  H
  C192     1.0000 0.62120  0.56050  0.87210  Biso   1.000  C
  C193     1.0000 0.65830  0.63810  0.86830  Biso   1.000  C
  C194     1.0000 0.70450  0.64640  0.91460  Biso   1.000  C
  H114     1.0000 0.72970  0.69790  0.91260  Biso   1.000  H
  C195     1.0000 0.71360  0.57920  0.96360  Biso   1.000  C
  H115     1.0000 0.74460  0.58710  0.99420  Biso   1.000  H
  C196     1.0000 0.56940  0.54120  0.82500  Biso   1.000  C
  C197     1.0000 0.64900  0.71810  0.81760  Biso   1.000  C
  C198     1.0000 0.68530  0.42950  0.01970  Biso   1.000  C
  C199     1.0000 0.70480  0.49470  0.07150  Biso   1.000  C
  H116     1.0000 0.71260  0.58160  0.07250  Biso   1.000  H
  C200     1.0000 0.71240  0.43170  0.12080  Biso   1.000  C
  C201     1.0000 0.69980  0.30160  0.12010  Biso   1.000  C
  C202     1.0000 0.68120  0.23680  0.06870  Biso   1.000  C
  H117     1.0000 0.67360  0.14970  0.06750  Biso   1.000  H
  C203     1.0000 0.67400  0.30030  0.01950  Biso   1.000  C
  H118     1.0000 0.66130  0.25530  0.98570  Biso   1.000  H
  C204     1.0000 0.73380  0.51270  0.17350  Biso   1.000  C
  C205     1.0000 0.70030  0.23130  0.16960  Biso   1.000  C
  C206     1.0000 0.49670  0.03000  0.97270  Biso   1.000  C
  C207     1.0000 0.45310  0.00820  0.92370  Biso   1.000  C
  H119     1.0000 0.42810  0.95490  0.92530  Biso   1.000  H
  C208     1.0000 0.44620  0.06470  0.87270  Biso   1.000  C
  C209     1.0000 0.48260  0.14470  0.86940  Biso   1.000  C
  C210     1.0000 0.52560  0.16370  0.91720  Biso   1.000  C
  H120     1.0000 0.55050  0.21630  0.91530  Biso   1.000  H
  C211     1.0000 0.53340  0.10850  0.96790  Biso   1.000  C
  H121     1.0000 0.56340  0.12350  0.99920  Biso   1.000  H
  C212     1.0000 0.39520  0.04090  0.82380  Biso   1.000  C
  C213     1.0000 0.47670  0.20430  0.81460  Biso   1.000  C
  O111     1.0000 0.32250  0.13220  0.92840  Biso   1.000  O
  N8       1.0000 0.38840  0.19480  0.00270  Biso   1.000  N
  C214     1.0000 0.36140  0.19050  0.94950  Biso   1.000  C
  H122     1.0000 0.37260  0.23480  0.92610  Biso   1.000  H
  C215     1.0000 0.43330  0.26110  0.03050  Biso   1.000  C
  H123     1.0000 0.44550  0.29090  0.00380  Biso   1.000  H
  H124     1.0000 0.42760  0.33340  0.05000  Biso   1.000  H
  H125     1.0000 0.45770  0.20480  0.05710  Biso   1.000  H
  C216     1.0000 0.37420  0.12220  0.03960  Biso   1.000  C
  H126     1.0000 0.33820  0.11960  0.02520  Biso   1.000  H
  H127     1.0000 0.38700  0.03620  0.04240  Biso   1.000  H
  H128     1.0000 0.38780  0.16160  0.07610  Biso   1.000  H
  O112     1.0000 0.60540  0.75960  0.79050  Biso   1.000  O
  Zn9      1.0000 0.00000  0.11617  0.25000  Biso   1.000  Zn
  Zn10     1.0000 0.50000  0.61617  0.25000  Biso   1.000  Zn
  Zn11     1.0000 0.00000  0.88383  0.75000  Biso   1.000  Zn
  Zn12     1.0000 0.50000  0.38383  0.75000  Biso   1.000  Zn
