data_image0
_cell_length_a       13.6907
_cell_length_b       22.2234
_cell_length_c       22.1776
_cell_angle_alpha    90
_cell_angle_beta     90
_cell_angle_gamma    90

_symmetry_space_group_name_H-M    "P 1"
_symmetry_int_tables_number       1

loop_
  _symmetry_equiv_pos_as_xyz
  'x, y, z'

loop_
  _atom_site_label
  _atom_site_occupancy
  _atom_site_fract_x
  _atom_site_fract_y
  _atom_site_fract_z
  _atom_site_thermal_displace_type
  _atom_site_B_iso_or_equiv
  _atom_site_type_symbol
  N1       1.0000 0.24180  0.49353  0.34130  Biso   1.000  N
  O1       1.0000 0.42200  0.49640  0.25350  Biso   1.000  O
  C1       1.0000 0.31700  0.30900  0.21640  Biso   1.000  C
  H1       1.0000 0.36330  0.28940  0.19280  Biso   1.000  H
  C2       1.0000 0.31460  0.37100  0.21800  Biso   1.000  C
  H2       1.0000 0.36070  0.39200  0.19560  Biso   1.000  H
  C3       1.0000 0.23750  0.49840  0.46570  Biso   1.000  C
  C4       1.0000 0.16560  0.52500  0.43270  Biso   1.000  C
  H3       1.0000 0.11420  0.54480  0.45160  Biso   1.000  H
  C5       1.0000 0.31150  0.46870  0.43610  Biso   1.000  C
  H4       1.0000 0.36180  0.45070  0.45770  Biso   1.000  H
  C6       1.0000 0.31510  0.17630  0.21630  Biso   1.000  C
  H5       1.0000 0.36110  0.19620  0.19270  Biso   1.000  H
  C7       1.0000 0.31030  0.46610  0.37320  Biso   1.000  C
  H6       1.0000 0.35870  0.44450  0.35330  Biso   1.000  H
  C8       1.0000 0.17070  0.52190  0.37030  Biso   1.000  C
  H7       1.0000 0.12200  0.54060  0.34780  Biso   1.000  H
  C9       1.0000 0.31300  0.11470  0.21680  Biso   1.000  C
  H8       1.0000 0.35750  0.09380  0.19300  Biso   1.000  H
  N2       1.0000 0.74180  0.99353  0.34130  Biso   1.000  N
  O2       1.0000 0.92200  0.99640  0.25350  Biso   1.000  O
  C10      1.0000 0.81700  0.80900  0.21640  Biso   1.000  C
  H9       1.0000 0.86330  0.78940  0.19280  Biso   1.000  H
  C11      1.0000 0.81460  0.87100  0.21800  Biso   1.000  C
  H10      1.0000 0.86070  0.89200  0.19560  Biso   1.000  H
  C12      1.0000 0.73750  0.99840  0.46570  Biso   1.000  C
  C13      1.0000 0.66560  0.02500  0.43270  Biso   1.000  C
  H11      1.0000 0.61420  0.04480  0.45160  Biso   1.000  H
  C14      1.0000 0.81150  0.96870  0.43610  Biso   1.000  C
  H12      1.0000 0.86180  0.95070  0.45770  Biso   1.000  H
  C15      1.0000 0.81510  0.67630  0.21630  Biso   1.000  C
  H13      1.0000 0.86110  0.69620  0.19270  Biso   1.000  H
  C16      1.0000 0.81030  0.96610  0.37320  Biso   1.000  C
  H14      1.0000 0.85870  0.94450  0.35330  Biso   1.000  H
  C17      1.0000 0.67070  0.02190  0.37030  Biso   1.000  C
  H15      1.0000 0.62200  0.04060  0.34780  Biso   1.000  H
  C18      1.0000 0.81300  0.61470  0.21680  Biso   1.000  C
  H16      1.0000 0.85750  0.59380  0.19300  Biso   1.000  H
  N3       1.0000 0.75820  0.00647  0.84130  Biso   1.000  N
  O3       1.0000 0.57800  0.00360  0.75350  Biso   1.000  O
  C19      1.0000 0.68300  0.19100  0.71640  Biso   1.000  C
  H17      1.0000 0.63670  0.21060  0.69280  Biso   1.000  H
  C20      1.0000 0.68540  0.12900  0.71800  Biso   1.000  C
  H18      1.0000 0.63930  0.10800  0.69560  Biso   1.000  H
  C21      1.0000 0.76250  0.00160  0.96570  Biso   1.000  C
  C22      1.0000 0.83440  0.97500  0.93270  Biso   1.000  C
  H19      1.0000 0.88580  0.95520  0.95160  Biso   1.000  H
  C23      1.0000 0.68850  0.03130  0.93610  Biso   1.000  C
  H20      1.0000 0.63820  0.04930  0.95770  Biso   1.000  H
  C24      1.0000 0.68490  0.32370  0.71630  Biso   1.000  C
  H21      1.0000 0.63890  0.30380  0.69270  Biso   1.000  H
  C25      1.0000 0.68970  0.03390  0.87320  Biso   1.000  C
  H22      1.0000 0.64130  0.05550  0.85330  Biso   1.000  H
  C26      1.0000 0.82930  0.97810  0.87030  Biso   1.000  C
  H23      1.0000 0.87800  0.95940  0.84780  Biso   1.000  H
  C27      1.0000 0.68700  0.38530  0.71680  Biso   1.000  C
  H24      1.0000 0.64250  0.40620  0.69300  Biso   1.000  H
  N4       1.0000 0.25820  0.50647  0.84130  Biso   1.000  N
  O4       1.0000 0.07800  0.50360  0.75350  Biso   1.000  O
  C28      1.0000 0.18300  0.69100  0.71640  Biso   1.000  C
  H25      1.0000 0.13670  0.71060  0.69280  Biso   1.000  H
  C29      1.0000 0.18540  0.62900  0.71800  Biso   1.000  C
  H26      1.0000 0.13930  0.60800  0.69560  Biso   1.000  H
  C30      1.0000 0.26250  0.50160  0.96570  Biso   1.000  C
  C31      1.0000 0.33440  0.47500  0.93270  Biso   1.000  C
  H27      1.0000 0.38580  0.45520  0.95160  Biso   1.000  H
  C32      1.0000 0.18850  0.53130  0.93610  Biso   1.000  C
  H28      1.0000 0.13820  0.54930  0.95770  Biso   1.000  H
  C33      1.0000 0.18490  0.82370  0.71630  Biso   1.000  C
  H29      1.0000 0.13890  0.80380  0.69270  Biso   1.000  H
  C34      1.0000 0.18970  0.53390  0.87320  Biso   1.000  C
  H30      1.0000 0.14130  0.55550  0.85330  Biso   1.000  H
  C35      1.0000 0.32930  0.47810  0.87030  Biso   1.000  C
  H31      1.0000 0.37800  0.45940  0.84780  Biso   1.000  H
  C36      1.0000 0.18700  0.88530  0.71680  Biso   1.000  C
  H32      1.0000 0.14250  0.90620  0.69300  Biso   1.000  H
  N5       1.0000 0.75820  0.99353  0.15870  Biso   1.000  N
  O5       1.0000 0.57800  0.99640  0.24650  Biso   1.000  O
  C37      1.0000 0.68300  0.80900  0.28360  Biso   1.000  C
  H33      1.0000 0.63670  0.78940  0.30720  Biso   1.000  H
  C38      1.0000 0.68540  0.87100  0.28200  Biso   1.000  C
  H34      1.0000 0.63930  0.89200  0.30440  Biso   1.000  H
  C39      1.0000 0.76250  0.99840  0.03430  Biso   1.000  C
  C40      1.0000 0.83440  0.02500  0.06730  Biso   1.000  C
  H35      1.0000 0.88580  0.04480  0.04840  Biso   1.000  H
  C41      1.0000 0.68850  0.96870  0.06390  Biso   1.000  C
  H36      1.0000 0.63820  0.95070  0.04230  Biso   1.000  H
  C42      1.0000 0.68490  0.67630  0.28370  Biso   1.000  C
  H37      1.0000 0.63890  0.69620  0.30730  Biso   1.000  H
  C43      1.0000 0.68970  0.96610  0.12680  Biso   1.000  C
  H38      1.0000 0.64130  0.94450  0.14670  Biso   1.000  H
  C44      1.0000 0.82930  0.02190  0.12970  Biso   1.000  C
  H39      1.0000 0.87800  0.04060  0.15220  Biso   1.000  H
  C45      1.0000 0.68700  0.61470  0.28320  Biso   1.000  C
  H40      1.0000 0.64250  0.59380  0.30700  Biso   1.000  H
  N6       1.0000 0.25820  0.49353  0.15870  Biso   1.000  N
  O6       1.0000 0.07800  0.49640  0.24650  Biso   1.000  O
  C46      1.0000 0.18300  0.30900  0.28360  Biso   1.000  C
  H41      1.0000 0.13670  0.28940  0.30720  Biso   1.000  H
  C47      1.0000 0.18540  0.37100  0.28200  Biso   1.000  C
  H42      1.0000 0.13930  0.39200  0.30440  Biso   1.000  H
  C48      1.0000 0.26250  0.49840  0.03430  Biso   1.000  C
  C49      1.0000 0.33440  0.52500  0.06730  Biso   1.000  C
  H43      1.0000 0.38580  0.54480  0.04840  Biso   1.000  H
  C50      1.0000 0.18850  0.46870  0.06390  Biso   1.000  C
  H44      1.0000 0.13820  0.45070  0.04230  Biso   1.000  H
  C51      1.0000 0.18490  0.17630  0.28370  Biso   1.000  C
  H45      1.0000 0.13890  0.19620  0.30730  Biso   1.000  H
  C52      1.0000 0.18970  0.46610  0.12680  Biso   1.000  C
  H46      1.0000 0.14130  0.44450  0.14670  Biso   1.000  H
  C53      1.0000 0.32930  0.52190  0.12970  Biso   1.000  C
  H47      1.0000 0.37800  0.54060  0.15220  Biso   1.000  H
  C54      1.0000 0.18700  0.11470  0.28320  Biso   1.000  C
  H48      1.0000 0.14250  0.09380  0.30700  Biso   1.000  H
  N7       1.0000 0.24180  0.50647  0.65870  Biso   1.000  N
  O7       1.0000 0.42200  0.50360  0.74650  Biso   1.000  O
  C55      1.0000 0.31700  0.69100  0.78360  Biso   1.000  C
  H49      1.0000 0.36330  0.71060  0.80720  Biso   1.000  H
  C56      1.0000 0.31460  0.62900  0.78200  Biso   1.000  C
  H50      1.0000 0.36070  0.60800  0.80440  Biso   1.000  H
  C57      1.0000 0.23750  0.50160  0.53430  Biso   1.000  C
  C58      1.0000 0.16560  0.47500  0.56730  Biso   1.000  C
  H51      1.0000 0.11420  0.45520  0.54840  Biso   1.000  H
  C59      1.0000 0.31150  0.53130  0.56390  Biso   1.000  C
  H52      1.0000 0.36180  0.54930  0.54230  Biso   1.000  H
  C60      1.0000 0.31510  0.82370  0.78370  Biso   1.000  C
  H53      1.0000 0.36110  0.80380  0.80730  Biso   1.000  H
  C61      1.0000 0.31030  0.53390  0.62680  Biso   1.000  C
  H54      1.0000 0.35870  0.55550  0.64670  Biso   1.000  H
  C62      1.0000 0.17070  0.47810  0.62970  Biso   1.000  C
  H55      1.0000 0.12200  0.45940  0.65220  Biso   1.000  H
  C63      1.0000 0.31300  0.88530  0.78320  Biso   1.000  C
  H56      1.0000 0.35750  0.90620  0.80700  Biso   1.000  H
  N8       1.0000 0.74180  0.00647  0.65870  Biso   1.000  N
  O8       1.0000 0.92200  0.00360  0.74650  Biso   1.000  O
  C64      1.0000 0.81700  0.19100  0.78360  Biso   1.000  C
  H57      1.0000 0.86330  0.21060  0.80720  Biso   1.000  H
  C65      1.0000 0.81460  0.12900  0.78200  Biso   1.000  C
  H58      1.0000 0.86070  0.10800  0.80440  Biso   1.000  H
  C66      1.0000 0.73750  0.00160  0.53430  Biso   1.000  C
  C67      1.0000 0.66560  0.97500  0.56730  Biso   1.000  C
  H59      1.0000 0.61420  0.95520  0.54840  Biso   1.000  H
  C68      1.0000 0.81150  0.03130  0.56390  Biso   1.000  C
  H60      1.0000 0.86180  0.04930  0.54230  Biso   1.000  H
  C69      1.0000 0.81510  0.32370  0.78370  Biso   1.000  C
  H61      1.0000 0.86110  0.30380  0.80730  Biso   1.000  H
  C70      1.0000 0.81030  0.03390  0.62680  Biso   1.000  C
  H62      1.0000 0.85870  0.05550  0.64670  Biso   1.000  H
  C71      1.0000 0.67070  0.97810  0.62970  Biso   1.000  C
  H63      1.0000 0.62200  0.95940  0.65220  Biso   1.000  H
  C72      1.0000 0.81300  0.38530  0.78320  Biso   1.000  C
  H64      1.0000 0.85750  0.40620  0.80700  Biso   1.000  H
  N9       1.0000 0.75820  0.50647  0.65870  Biso   1.000  N
  O9       1.0000 0.57800  0.50360  0.74650  Biso   1.000  O
  C73      1.0000 0.68300  0.69100  0.78360  Biso   1.000  C
  H65      1.0000 0.63670  0.71060  0.80720  Biso   1.000  H
  C74      1.0000 0.68540  0.62900  0.78200  Biso   1.000  C
  H66      1.0000 0.63930  0.60800  0.80440  Biso   1.000  H
  C75      1.0000 0.76250  0.50160  0.53430  Biso   1.000  C
  C76      1.0000 0.83440  0.47500  0.56730  Biso   1.000  C
  H67      1.0000 0.88580  0.45520  0.54840  Biso   1.000  H
  C77      1.0000 0.68850  0.53130  0.56390  Biso   1.000  C
  H68      1.0000 0.63820  0.54930  0.54230  Biso   1.000  H
  C78      1.0000 0.68490  0.82370  0.78370  Biso   1.000  C
  H69      1.0000 0.63890  0.80380  0.80730  Biso   1.000  H
  C79      1.0000 0.68970  0.53390  0.62680  Biso   1.000  C
  H70      1.0000 0.64130  0.55550  0.64670  Biso   1.000  H
  C80      1.0000 0.82930  0.47810  0.62970  Biso   1.000  C
  H71      1.0000 0.87800  0.45940  0.65220  Biso   1.000  H
  C81      1.0000 0.68700  0.88530  0.78320  Biso   1.000  C
  H72      1.0000 0.64250  0.90620  0.80700  Biso   1.000  H
  N10      1.0000 0.25820  0.00647  0.65870  Biso   1.000  N
  O10      1.0000 0.07800  0.00360  0.74650  Biso   1.000  O
  C82      1.0000 0.18300  0.19100  0.78360  Biso   1.000  C
  H73      1.0000 0.13670  0.21060  0.80720  Biso   1.000  H
  C83      1.0000 0.18540  0.12900  0.78200  Biso   1.000  C
  H74      1.0000 0.13930  0.10800  0.80440  Biso   1.000  H
  C84      1.0000 0.26250  0.00160  0.53430  Biso   1.000  C
  C85      1.0000 0.33440  0.97500  0.56730  Biso   1.000  C
  H75      1.0000 0.38580  0.95520  0.54840  Biso   1.000  H
  C86      1.0000 0.18850  0.03130  0.56390  Biso   1.000  C
  H76      1.0000 0.13820  0.04930  0.54230  Biso   1.000  H
  C87      1.0000 0.18490  0.32370  0.78370  Biso   1.000  C
  H77      1.0000 0.13890  0.30380  0.80730  Biso   1.000  H
  C88      1.0000 0.18970  0.03390  0.62680  Biso   1.000  C
  H78      1.0000 0.14130  0.05550  0.64670  Biso   1.000  H
  C89      1.0000 0.32930  0.97810  0.62970  Biso   1.000  C
  H79      1.0000 0.37800  0.95940  0.65220  Biso   1.000  H
  C90      1.0000 0.18700  0.38530  0.78320  Biso   1.000  C
  H80      1.0000 0.14250  0.40620  0.80700  Biso   1.000  H
  N11      1.0000 0.24180  0.99353  0.15870  Biso   1.000  N
  O11      1.0000 0.42200  0.99640  0.24650  Biso   1.000  O
  C91      1.0000 0.31700  0.80900  0.28360  Biso   1.000  C
  H81      1.0000 0.36330  0.78940  0.30720  Biso   1.000  H
  C92      1.0000 0.31460  0.87100  0.28200  Biso   1.000  C
  H82      1.0000 0.36070  0.89200  0.30440  Biso   1.000  H
  C93      1.0000 0.23750  0.99840  0.03430  Biso   1.000  C
  C94      1.0000 0.16560  0.02500  0.06730  Biso   1.000  C
  H83      1.0000 0.11420  0.04480  0.04840  Biso   1.000  H
  C95      1.0000 0.31150  0.96870  0.06390  Biso   1.000  C
  H84      1.0000 0.36180  0.95070  0.04230  Biso   1.000  H
  C96      1.0000 0.31510  0.67630  0.28370  Biso   1.000  C
  H85      1.0000 0.36110  0.69620  0.30730  Biso   1.000  H
  C97      1.0000 0.31030  0.96610  0.12680  Biso   1.000  C
  H86      1.0000 0.35870  0.94450  0.14670  Biso   1.000  H
  C98      1.0000 0.17070  0.02190  0.12970  Biso   1.000  C
  H87      1.0000 0.12200  0.04060  0.15220  Biso   1.000  H
  C99      1.0000 0.31300  0.61470  0.28320  Biso   1.000  C
  H88      1.0000 0.35750  0.59380  0.30700  Biso   1.000  H
  N12      1.0000 0.74180  0.49353  0.15870  Biso   1.000  N
  O12      1.0000 0.92200  0.49640  0.24650  Biso   1.000  O
  C100     1.0000 0.81700  0.30900  0.28360  Biso   1.000  C
  H89      1.0000 0.86330  0.28940  0.30720  Biso   1.000  H
  C101     1.0000 0.81460  0.37100  0.28200  Biso   1.000  C
  H90      1.0000 0.86070  0.39200  0.30440  Biso   1.000  H
  C102     1.0000 0.73750  0.49840  0.03430  Biso   1.000  C
  C103     1.0000 0.66560  0.52500  0.06730  Biso   1.000  C
  H91      1.0000 0.61420  0.54480  0.04840  Biso   1.000  H
  C104     1.0000 0.81150  0.46870  0.06390  Biso   1.000  C
  H92      1.0000 0.86180  0.45070  0.04230  Biso   1.000  H
  C105     1.0000 0.81510  0.17630  0.28370  Biso   1.000  C
  H93      1.0000 0.86110  0.19620  0.30730  Biso   1.000  H
  C106     1.0000 0.81030  0.46610  0.12680  Biso   1.000  C
  H94      1.0000 0.85870  0.44450  0.14670  Biso   1.000  H
  C107     1.0000 0.67070  0.52190  0.12970  Biso   1.000  C
  H95      1.0000 0.62200  0.54060  0.15220  Biso   1.000  H
  C108     1.0000 0.81300  0.11470  0.28320  Biso   1.000  C
  H96      1.0000 0.85750  0.09380  0.30700  Biso   1.000  H
  N13      1.0000 0.24180  0.00647  0.84130  Biso   1.000  N
  O13      1.0000 0.42200  0.00360  0.75350  Biso   1.000  O
  C109     1.0000 0.31700  0.19100  0.71640  Biso   1.000  C
  H97      1.0000 0.36330  0.21060  0.69280  Biso   1.000  H
  C110     1.0000 0.31460  0.12900  0.71800  Biso   1.000  C
  H98      1.0000 0.36070  0.10800  0.69560  Biso   1.000  H
  C111     1.0000 0.23750  0.00160  0.96570  Biso   1.000  C
  C112     1.0000 0.16560  0.97500  0.93270  Biso   1.000  C
  H99      1.0000 0.11420  0.95520  0.95160  Biso   1.000  H
  C113     1.0000 0.31150  0.03130  0.93610  Biso   1.000  C
  H100     1.0000 0.36180  0.04930  0.95770  Biso   1.000  H
  C114     1.0000 0.31510  0.32370  0.71630  Biso   1.000  C
  H101     1.0000 0.36110  0.30380  0.69270  Biso   1.000  H
  C115     1.0000 0.31030  0.03390  0.87320  Biso   1.000  C
  H102     1.0000 0.35870  0.05550  0.85330  Biso   1.000  H
  C116     1.0000 0.17070  0.97810  0.87030  Biso   1.000  C
  H103     1.0000 0.12200  0.95940  0.84780  Biso   1.000  H
  C117     1.0000 0.31300  0.38530  0.71680  Biso   1.000  C
  H104     1.0000 0.35750  0.40620  0.69300  Biso   1.000  H
  N14      1.0000 0.74180  0.50647  0.84130  Biso   1.000  N
  O14      1.0000 0.92200  0.50360  0.75350  Biso   1.000  O
  C118     1.0000 0.81700  0.69100  0.71640  Biso   1.000  C
  H105     1.0000 0.86330  0.71060  0.69280  Biso   1.000  H
  C119     1.0000 0.81460  0.62900  0.71800  Biso   1.000  C
  H106     1.0000 0.86070  0.60800  0.69560  Biso   1.000  H
  C120     1.0000 0.73750  0.50160  0.96570  Biso   1.000  C
  C121     1.0000 0.66560  0.47500  0.93270  Biso   1.000  C
  H107     1.0000 0.61420  0.45520  0.95160  Biso   1.000  H
  C122     1.0000 0.81150  0.53130  0.93610  Biso   1.000  C
  H108     1.0000 0.86180  0.54930  0.95770  Biso   1.000  H
  C123     1.0000 0.81510  0.82370  0.71630  Biso   1.000  C
  H109     1.0000 0.86110  0.80380  0.69270  Biso   1.000  H
  C124     1.0000 0.81030  0.53390  0.87320  Biso   1.000  C
  H110     1.0000 0.85870  0.55550  0.85330  Biso   1.000  H
  C125     1.0000 0.67070  0.47810  0.87030  Biso   1.000  C
  H111     1.0000 0.62200  0.45940  0.84780  Biso   1.000  H
  C126     1.0000 0.81300  0.88530  0.71680  Biso   1.000  C
  H112     1.0000 0.85750  0.90620  0.69300  Biso   1.000  H
  N15      1.0000 0.75820  0.49353  0.34130  Biso   1.000  N
  O15      1.0000 0.57800  0.49640  0.25350  Biso   1.000  O
  C127     1.0000 0.68300  0.30900  0.21640  Biso   1.000  C
  H113     1.0000 0.63670  0.28940  0.19280  Biso   1.000  H
  C128     1.0000 0.68540  0.37100  0.21800  Biso   1.000  C
  H114     1.0000 0.63930  0.39200  0.19560  Biso   1.000  H
  C129     1.0000 0.76250  0.49840  0.46570  Biso   1.000  C
  C130     1.0000 0.83440  0.52500  0.43270  Biso   1.000  C
  H115     1.0000 0.88580  0.54480  0.45160  Biso   1.000  H
  C131     1.0000 0.68850  0.46870  0.43610  Biso   1.000  C
  H116     1.0000 0.63820  0.45070  0.45770  Biso   1.000  H
  C132     1.0000 0.68490  0.17630  0.21630  Biso   1.000  C
  H117     1.0000 0.63890  0.19620  0.19270  Biso   1.000  H
  C133     1.0000 0.68970  0.46610  0.37320  Biso   1.000  C
  H118     1.0000 0.64130  0.44450  0.35330  Biso   1.000  H
  C134     1.0000 0.82930  0.52190  0.37030  Biso   1.000  C
  H119     1.0000 0.87800  0.54060  0.34780  Biso   1.000  H
  C135     1.0000 0.68700  0.11470  0.21680  Biso   1.000  C
  H120     1.0000 0.64250  0.09380  0.19300  Biso   1.000  H
  N16      1.0000 0.25820  0.99353  0.34130  Biso   1.000  N
  O16      1.0000 0.07800  0.99640  0.25350  Biso   1.000  O
  C136     1.0000 0.18300  0.80900  0.21640  Biso   1.000  C
  H121     1.0000 0.13670  0.78940  0.19280  Biso   1.000  H
  C137     1.0000 0.18540  0.87100  0.21800  Biso   1.000  C
  H122     1.0000 0.13930  0.89200  0.19560  Biso   1.000  H
  C138     1.0000 0.26250  0.99840  0.46570  Biso   1.000  C
  C139     1.0000 0.33440  0.02500  0.43270  Biso   1.000  C
  H123     1.0000 0.38580  0.04480  0.45160  Biso   1.000  H
  C140     1.0000 0.18850  0.96870  0.43610  Biso   1.000  C
  H124     1.0000 0.13820  0.95070  0.45770  Biso   1.000  H
  C141     1.0000 0.18490  0.67630  0.21630  Biso   1.000  C
  H125     1.0000 0.13890  0.69620  0.19270  Biso   1.000  H
  C142     1.0000 0.18970  0.96610  0.37320  Biso   1.000  C
  H126     1.0000 0.14130  0.94450  0.35330  Biso   1.000  H
  C143     1.0000 0.32930  0.02190  0.37030  Biso   1.000  C
  H127     1.0000 0.37800  0.04060  0.34780  Biso   1.000  H
  C144     1.0000 0.18700  0.61470  0.21680  Biso   1.000  C
  H128     1.0000 0.14250  0.59380  0.19300  Biso   1.000  H
  N17      1.0000 0.50000  0.47400  0.26480  Biso   1.000  N
  O17      1.0000 0.50000  0.42380  0.29020  Biso   1.000  O
  N18      1.0000 0.50000  0.51100  0.25000  Biso   1.000  N
  O18      1.0000 0.50000  0.56100  0.22100  Biso   1.000  O
  N19      1.0000 0.00000  0.97400  0.26480  Biso   1.000  N
  O19      1.0000 0.00000  0.92380  0.29020  Biso   1.000  O
  N20      1.0000 0.00000  0.01100  0.25000  Biso   1.000  N
  O20      1.0000 0.00000  0.06100  0.22100  Biso   1.000  O
  N21      1.0000 0.50000  0.02600  0.76480  Biso   1.000  N
  O21      1.0000 0.50000  0.07620  0.79020  Biso   1.000  O
  N22      1.0000 0.50000  0.98900  0.75000  Biso   1.000  N
  O22      1.0000 0.50000  0.93900  0.72100  Biso   1.000  O
  N23      1.0000 0.00000  0.52600  0.76480  Biso   1.000  N
  O23      1.0000 0.00000  0.57620  0.79020  Biso   1.000  O
  N24      1.0000 0.00000  0.48900  0.75000  Biso   1.000  N
  O24      1.0000 0.00000  0.43900  0.72100  Biso   1.000  O
  N25      1.0000 0.50000  0.97400  0.23520  Biso   1.000  N
  O25      1.0000 0.50000  0.92380  0.20980  Biso   1.000  O
  N26      1.0000 0.50000  0.01100  0.25000  Biso   1.000  N
  O26      1.0000 0.50000  0.06100  0.27900  Biso   1.000  O
  N27      1.0000 0.00000  0.47400  0.23520  Biso   1.000  N
  O27      1.0000 0.00000  0.42380  0.20980  Biso   1.000  O
  N28      1.0000 0.00000  0.51100  0.25000  Biso   1.000  N
  O28      1.0000 0.00000  0.56100  0.27900  Biso   1.000  O
  N29      1.0000 0.50000  0.52600  0.73520  Biso   1.000  N
  O29      1.0000 0.50000  0.57620  0.70980  Biso   1.000  O
  N30      1.0000 0.50000  0.48900  0.75000  Biso   1.000  N
  O30      1.0000 0.50000  0.43900  0.77900  Biso   1.000  O
  N31      1.0000 0.00000  0.02600  0.73520  Biso   1.000  N
  O31      1.0000 0.00000  0.07620  0.70980  Biso   1.000  O
  N32      1.0000 0.00000  0.98900  0.75000  Biso   1.000  N
  O32      1.0000 0.00000  0.93900  0.77900  Biso   1.000  O
  Cu1      1.0000 0.25000  0.49254  0.25000  Biso   1.000  Cu
  N33      1.0000 0.25000  0.40250  0.25000  Biso   1.000  N
  C145     1.0000 0.25000  0.27520  0.25000  Biso   1.000  C
  C146     1.0000 0.25000  0.20890  0.25000  Biso   1.000  C
  N34      1.0000 0.25000  0.08340  0.25000  Biso   1.000  N
  Cu2      1.0000 0.75000  0.00746  0.75000  Biso   1.000  Cu
  N35      1.0000 0.75000  0.09750  0.75000  Biso   1.000  N
  C147     1.0000 0.75000  0.22480  0.75000  Biso   1.000  C
  C148     1.0000 0.75000  0.29110  0.75000  Biso   1.000  C
  N36      1.0000 0.75000  0.41660  0.75000  Biso   1.000  N
  Cu3      1.0000 0.75000  0.99254  0.25000  Biso   1.000  Cu
  N37      1.0000 0.75000  0.90250  0.25000  Biso   1.000  N
  C149     1.0000 0.75000  0.77520  0.25000  Biso   1.000  C
  C150     1.0000 0.75000  0.70890  0.25000  Biso   1.000  C
  N38      1.0000 0.75000  0.58340  0.25000  Biso   1.000  N
  Cu4      1.0000 0.25000  0.50746  0.75000  Biso   1.000  Cu
  N39      1.0000 0.25000  0.59750  0.75000  Biso   1.000  N
  C151     1.0000 0.25000  0.72480  0.75000  Biso   1.000  C
  C152     1.0000 0.25000  0.79110  0.75000  Biso   1.000  C
  N40      1.0000 0.25000  0.91660  0.75000  Biso   1.000  N
  Cu5      1.0000 0.75000  0.50746  0.75000  Biso   1.000  Cu
  N41      1.0000 0.75000  0.59750  0.75000  Biso   1.000  N
  C153     1.0000 0.75000  0.72480  0.75000  Biso   1.000  C
  C154     1.0000 0.75000  0.79110  0.75000  Biso   1.000  C
  N42      1.0000 0.75000  0.91660  0.75000  Biso   1.000  N
  Cu6      1.0000 0.25000  0.99254  0.25000  Biso   1.000  Cu
  N43      1.0000 0.25000  0.90250  0.25000  Biso   1.000  N
  C155     1.0000 0.25000  0.77520  0.25000  Biso   1.000  C
  C156     1.0000 0.25000  0.70890  0.25000  Biso   1.000  C
  N44      1.0000 0.25000  0.58340  0.25000  Biso   1.000  N
  Cu7      1.0000 0.25000  0.00746  0.75000  Biso   1.000  Cu
  N45      1.0000 0.25000  0.09750  0.75000  Biso   1.000  N
  C157     1.0000 0.25000  0.22480  0.75000  Biso   1.000  C
  C158     1.0000 0.25000  0.29110  0.75000  Biso   1.000  C
  N46      1.0000 0.25000  0.41660  0.75000  Biso   1.000  N
  Cu8      1.0000 0.75000  0.49254  0.25000  Biso   1.000  Cu
  N47      1.0000 0.75000  0.40250  0.25000  Biso   1.000  N
  C159     1.0000 0.75000  0.27520  0.25000  Biso   1.000  C
  C160     1.0000 0.75000  0.20890  0.25000  Biso   1.000  C
  N48      1.0000 0.75000  0.08340  0.25000  Biso   1.000  N
