data_image0
_cell_length_a       7.6396
_cell_length_b       10.1725
_cell_length_c       12.1168
_cell_angle_alpha    114.82
_cell_angle_beta     96.9017
_cell_angle_gamma    90

_symmetry_space_group_name_H-M    P 1
_symmetry_int_tables_number       1

loop_
  _symmetry_equiv_pos_as_xyz
  'x, y, z'

loop_
  _atom_site_label
  _atom_site_occupancy
  _atom_site_fract_x
  _atom_site_fract_y
  _atom_site_fract_z
  _atom_site_thermal_displace_type
  _atom_site_B_iso_or_equiv
  _atom_site_type_symbol
  Cd1      1.0000 0.00000  0.00000  0.50000  Biso   1.000  Cd
  Cd2      1.0000 0.50000  0.50000  0.50000  Biso   1.000  Cd
  H1       1.0000 0.97850  0.81620  0.65780  Biso   1.000  H
  H2       1.0000 0.89990  0.82270  0.83540  Biso   1.000  H
  H3       1.0000 0.70580  0.21300  0.90540  Biso   1.000  H
  H4       1.0000 0.79000  0.19450  0.72440  Biso   1.000  H
  H5       1.0000 0.52150  0.15840  0.34220  Biso   1.000  H
  H6       1.0000 0.60010  0.98730  0.16460  Biso   1.000  H
  H7       1.0000 0.79420  0.30760  0.09460  Biso   1.000  H
  H8       1.0000 0.71000  0.47010  0.27560  Biso   1.000  H
  H9       1.0000 0.02150  0.18380  0.34220  Biso   1.000  H
  H10      1.0000 0.10010  0.17730  0.16460  Biso   1.000  H
  H11      1.0000 0.29420  0.78700  0.09460  Biso   1.000  H
  H12      1.0000 0.21000  0.80550  0.27560  Biso   1.000  H
  H13      1.0000 0.47850  0.84160  0.65780  Biso   1.000  H
  H14      1.0000 0.39990  0.01270  0.83540  Biso   1.000  H
  H15      1.0000 0.20580  0.69240  0.90540  Biso   1.000  H
  H16      1.0000 0.29000  0.52990  0.72440  Biso   1.000  H
  H17      1.0000 0.75000  0.93180  0.00000  Biso   1.000  H
  H18      1.0000 0.25000  0.06820  0.00000  Biso   1.000  H
  C1       1.0000 0.12720  0.64668  0.41616  Biso   1.000  C
  C2       1.0000 0.79810  0.02117  0.89514  Biso   1.000  C
  C3       1.0000 0.92510  0.89752  0.70884  Biso   1.000  C
  C4       1.0000 0.87820  0.90080  0.81580  Biso   1.000  C
  C5       1.0000 0.76300  0.13209  0.85758  Biso   1.000  C
  C6       1.0000 0.81440  0.11990  0.74820  Biso   1.000  C
  C7       1.0000 0.37280  0.23052  0.58384  Biso   1.000  C
  C8       1.0000 0.70190  0.12603  0.10486  Biso   1.000  C
  C9       1.0000 0.57490  0.18868  0.29116  Biso   1.000  C
  C10      1.0000 0.62180  0.08500  0.18420  Biso   1.000  C
  C11      1.0000 0.73700  0.27451  0.14242  Biso   1.000  C
  C12      1.0000 0.68560  0.37170  0.25180  Biso   1.000  C
  C13      1.0000 0.87280  0.35332  0.58384  Biso   1.000  C
  C14      1.0000 0.20190  0.97883  0.10486  Biso   1.000  C
  C15      1.0000 0.07490  0.10248  0.29116  Biso   1.000  C
  C16      1.0000 0.12180  0.09920  0.18420  Biso   1.000  C
  C17      1.0000 0.23700  0.86791  0.14242  Biso   1.000  C
  C18      1.0000 0.18560  0.88010  0.25180  Biso   1.000  C
  C19      1.0000 0.62720  0.76948  0.41616  Biso   1.000  C
  C20      1.0000 0.29810  0.87397  0.89514  Biso   1.000  C
  C21      1.0000 0.42510  0.81132  0.70884  Biso   1.000  C
  C22      1.0000 0.37820  0.91500  0.81580  Biso   1.000  C
  C23      1.0000 0.26300  0.72549  0.85758  Biso   1.000  C
  C24      1.0000 0.31440  0.62830  0.74820  Biso   1.000  C
  S1       1.0000 0.17687  0.47472  0.36066  Biso   1.000  S
  S2       1.0000 0.32313  0.11406  0.63934  Biso   1.000  S
  S3       1.0000 0.82313  0.52528  0.63934  Biso   1.000  S
  S4       1.0000 0.67687  0.88594  0.36066  Biso   1.000  S
  N1       1.0000 0.09070  0.76647  0.45454  Biso   1.000  N
  N2       1.0000 0.89750  0.00661  0.67422  Biso   1.000  N
  N3       1.0000 0.40930  0.31193  0.54546  Biso   1.000  N
  N4       1.0000 0.60250  0.33239  0.32578  Biso   1.000  N
  N5       1.0000 0.90930  0.23353  0.54546  Biso   1.000  N
  N6       1.0000 0.10250  0.99339  0.32578  Biso   1.000  N
  N7       1.0000 0.59070  0.68807  0.45454  Biso   1.000  N
  N8       1.0000 0.39750  0.66761  0.67422  Biso   1.000  N
  N9       1.0000 0.75000  0.01660  0.00000  Biso   1.000  N
  N10      1.0000 0.25000  0.98340  0.00000  Biso   1.000  N
