data_image0
_cell_length_a       15.4234
_cell_length_b       15.7761
_cell_length_c       19.1034
_cell_angle_alpha    90
_cell_angle_beta     108.591
_cell_angle_gamma    90

_symmetry_space_group_name_H-M    "P 1"
_symmetry_int_tables_number       1

loop_
  _symmetry_equiv_pos_as_xyz
  'x, y, z'

loop_
  _atom_site_label
  _atom_site_occupancy
  _atom_site_fract_x
  _atom_site_fract_y
  _atom_site_fract_z
  _atom_site_thermal_displace_type
  _atom_site_B_iso_or_equiv
  _atom_site_type_symbol
  Cu1      1.0000 0.09598  0.29100  0.57719  Biso   1.000  Cu
  O1       1.0000 0.18438  0.21623  0.56348  Biso   1.000  O
  H1       1.0000 0.18470  0.16850  0.58010  Biso   1.000  H
  O2       1.0000 0.01880  0.37492  0.60422  Biso   1.000  O
  O3       1.0000 0.87680  0.34680  0.53103  Biso   1.000  O
  N1       1.0000 0.39150  0.21530  0.58598  Biso   1.000  N
  N2       1.0000 0.45913  0.19799  0.55829  Biso   1.000  N
  N3       1.0000 0.25228  0.37269  0.54909  Biso   1.000  N
  N4       1.0000 0.18604  0.38876  0.57896  Biso   1.000  N
  N5       1.0000 0.51032  0.69717  0.58240  Biso   1.000  N
  N6       1.0000 0.48003  0.64559  0.52465  Biso   1.000  N
  C1       1.0000 0.40790  0.21658  0.65850  Biso   1.000  C
  H2       1.0000 0.35810  0.22980  0.67670  Biso   1.000  H
  C2       1.0000 0.49340  0.19978  0.70986  Biso   1.000  C
  C3       1.0000 0.56240  0.18270  0.68150  Biso   1.000  C
  H3       1.0000 0.62320  0.17080  0.71330  Biso   1.000  H
  C4       1.0000 0.54170  0.18290  0.60469  Biso   1.000  C
  H4       1.0000 0.59020  0.17150  0.58460  Biso   1.000  H
  C5       1.0000 0.31335  0.43136  0.55012  Biso   1.000  C
  H5       1.0000 0.36010  0.41860  0.52850  Biso   1.000  H
  C6       1.0000 0.31321  0.51230  0.58166  Biso   1.000  C
  C7       1.0000 0.24530  0.52810  0.61170  Biso   1.000  C
  H6       1.0000 0.24100  0.58200  0.63370  Biso   1.000  H
  C8       1.0000 0.18250  0.46367  0.60935  Biso   1.000  C
  H7       1.0000 0.13490  0.47400  0.63060  Biso   1.000  H
  C9       1.0000 0.41710  0.58563  0.52363  Biso   1.000  C
  H8       1.0000 0.39530  0.54910  0.48150  Biso   1.000  H
  C10      1.0000 0.38343  0.57597  0.58236  Biso   1.000  C
  C11      1.0000 0.41800  0.63015  0.64197  Biso   1.000  C
  H9       1.0000 0.39730  0.62550  0.68420  Biso   1.000  H
  C12      1.0000 0.48100  0.68970  0.64072  Biso   1.000  C
  H10      1.0000 0.50470  0.72680  0.68230  Biso   1.000  H
  C13      1.0000 0.93360  0.38300  0.58120  Biso   1.000  C
  C14      1.0000 0.89820  0.44820  0.62470  Biso   1.000  C
  F1       1.0000 0.95630  0.50860  0.65170  Biso   1.000  F
  F2       1.0000 0.89540  0.41090  0.68630  Biso   1.000  F
  F3       1.0000 0.81370  0.46830  0.59080  Biso   1.000  F
  F4       1.0000 0.95850  0.48840  0.67770  Biso   1.000  F
  F5       1.0000 0.83690  0.41730  0.65090  Biso   1.000  F
  F6       1.0000 0.86030  0.51350  0.58180  Biso   1.000  F
  Cu2      1.0000 0.59598  0.79100  0.57719  Biso   1.000  Cu
  O4       1.0000 0.68438  0.71623  0.56348  Biso   1.000  O
  H11      1.0000 0.68470  0.66850  0.58010  Biso   1.000  H
  O5       1.0000 0.51880  0.87492  0.60422  Biso   1.000  O
  O6       1.0000 0.37680  0.84680  0.53103  Biso   1.000  O
  N7       1.0000 0.89150  0.71530  0.58598  Biso   1.000  N
  N8       1.0000 0.95913  0.69799  0.55829  Biso   1.000  N
  N9       1.0000 0.75228  0.87269  0.54909  Biso   1.000  N
  N10      1.0000 0.68604  0.88876  0.57896  Biso   1.000  N
  N11      1.0000 0.01032  0.19717  0.58240  Biso   1.000  N
  N12      1.0000 0.98003  0.14559  0.52465  Biso   1.000  N
  C15      1.0000 0.90790  0.71658  0.65850  Biso   1.000  C
  H12      1.0000 0.85810  0.72980  0.67670  Biso   1.000  H
  C16      1.0000 0.99340  0.69978  0.70986  Biso   1.000  C
  C17      1.0000 0.06240  0.68270  0.68150  Biso   1.000  C
  H13      1.0000 0.12320  0.67080  0.71330  Biso   1.000  H
  C18      1.0000 0.04170  0.68290  0.60469  Biso   1.000  C
  H14      1.0000 0.09020  0.67150  0.58460  Biso   1.000  H
  C19      1.0000 0.81335  0.93136  0.55012  Biso   1.000  C
  H15      1.0000 0.86010  0.91860  0.52850  Biso   1.000  H
  C20      1.0000 0.81321  0.01230  0.58166  Biso   1.000  C
  C21      1.0000 0.74530  0.02810  0.61170  Biso   1.000  C
  H16      1.0000 0.74100  0.08200  0.63370  Biso   1.000  H
  C22      1.0000 0.68250  0.96367  0.60935  Biso   1.000  C
  H17      1.0000 0.63490  0.97400  0.63060  Biso   1.000  H
  C23      1.0000 0.91710  0.08563  0.52363  Biso   1.000  C
  H18      1.0000 0.89530  0.04910  0.48150  Biso   1.000  H
  C24      1.0000 0.88343  0.07597  0.58236  Biso   1.000  C
  C25      1.0000 0.91800  0.13015  0.64197  Biso   1.000  C
  H19      1.0000 0.89730  0.12550  0.68420  Biso   1.000  H
  C26      1.0000 0.98100  0.18970  0.64072  Biso   1.000  C
  H20      1.0000 0.00470  0.22680  0.68230  Biso   1.000  H
  C27      1.0000 0.43360  0.88300  0.58120  Biso   1.000  C
  C28      1.0000 0.39820  0.94820  0.62470  Biso   1.000  C
  F7       1.0000 0.45630  0.00860  0.65170  Biso   1.000  F
  F8       1.0000 0.39540  0.91090  0.68630  Biso   1.000  F
  F9       1.0000 0.31370  0.96830  0.59080  Biso   1.000  F
  F10      1.0000 0.45850  0.98840  0.67770  Biso   1.000  F
  F11      1.0000 0.33690  0.91730  0.65090  Biso   1.000  F
  F12      1.0000 0.36030  0.01350  0.58180  Biso   1.000  F
  Cu3      1.0000 0.90402  0.29100  0.92281  Biso   1.000  Cu
  O7       1.0000 0.81562  0.21623  0.93652  Biso   1.000  O
  H21      1.0000 0.81530  0.16850  0.91990  Biso   1.000  H
  O8       1.0000 0.98120  0.37492  0.89578  Biso   1.000  O
  O9       1.0000 0.12320  0.34680  0.96897  Biso   1.000  O
  N13      1.0000 0.60850  0.21530  0.91402  Biso   1.000  N
  N14      1.0000 0.54087  0.19799  0.94171  Biso   1.000  N
  N15      1.0000 0.74772  0.37269  0.95091  Biso   1.000  N
  N16      1.0000 0.81396  0.38876  0.92104  Biso   1.000  N
  N17      1.0000 0.48968  0.69717  0.91760  Biso   1.000  N
  N18      1.0000 0.51997  0.64559  0.97535  Biso   1.000  N
  C29      1.0000 0.59210  0.21658  0.84150  Biso   1.000  C
  H22      1.0000 0.64190  0.22980  0.82330  Biso   1.000  H
  C30      1.0000 0.50660  0.19978  0.79014  Biso   1.000  C
  C31      1.0000 0.43760  0.18270  0.81850  Biso   1.000  C
  H23      1.0000 0.37680  0.17080  0.78670  Biso   1.000  H
  C32      1.0000 0.45830  0.18290  0.89531  Biso   1.000  C
  H24      1.0000 0.40980  0.17150  0.91540  Biso   1.000  H
  C33      1.0000 0.68665  0.43136  0.94988  Biso   1.000  C
  H25      1.0000 0.63990  0.41860  0.97150  Biso   1.000  H
  C34      1.0000 0.68679  0.51230  0.91834  Biso   1.000  C
  C35      1.0000 0.75470  0.52810  0.88830  Biso   1.000  C
  H26      1.0000 0.75900  0.58200  0.86630  Biso   1.000  H
  C36      1.0000 0.81750  0.46367  0.89065  Biso   1.000  C
  H27      1.0000 0.86510  0.47400  0.86940  Biso   1.000  H
  C37      1.0000 0.58290  0.58563  0.97637  Biso   1.000  C
  H28      1.0000 0.60470  0.54910  0.01850  Biso   1.000  H
  C38      1.0000 0.61657  0.57597  0.91764  Biso   1.000  C
  C39      1.0000 0.58200  0.63015  0.85803  Biso   1.000  C
  H29      1.0000 0.60270  0.62550  0.81580  Biso   1.000  H
  C40      1.0000 0.51900  0.68970  0.85928  Biso   1.000  C
  H30      1.0000 0.49530  0.72680  0.81770  Biso   1.000  H
  C41      1.0000 0.06640  0.38300  0.91880  Biso   1.000  C
  C42      1.0000 0.10180  0.44820  0.87530  Biso   1.000  C
  F13      1.0000 0.04370  0.50860  0.84830  Biso   1.000  F
  F14      1.0000 0.10460  0.41090  0.81370  Biso   1.000  F
  F15      1.0000 0.18630  0.46830  0.90920  Biso   1.000  F
  F16      1.0000 0.04150  0.48840  0.82230  Biso   1.000  F
  F17      1.0000 0.16310  0.41730  0.84910  Biso   1.000  F
  F18      1.0000 0.13970  0.51350  0.91820  Biso   1.000  F
  Cu4      1.0000 0.40402  0.79100  0.92281  Biso   1.000  Cu
  O10      1.0000 0.31562  0.71623  0.93652  Biso   1.000  O
  H31      1.0000 0.31530  0.66850  0.91990  Biso   1.000  H
  O11      1.0000 0.48120  0.87492  0.89578  Biso   1.000  O
  O12      1.0000 0.62320  0.84680  0.96897  Biso   1.000  O
  N19      1.0000 0.10850  0.71530  0.91402  Biso   1.000  N
  N20      1.0000 0.04087  0.69799  0.94171  Biso   1.000  N
  N21      1.0000 0.24772  0.87269  0.95091  Biso   1.000  N
  N22      1.0000 0.31396  0.88876  0.92104  Biso   1.000  N
  N23      1.0000 0.98968  0.19717  0.91760  Biso   1.000  N
  N24      1.0000 0.01997  0.14559  0.97535  Biso   1.000  N
  C43      1.0000 0.09210  0.71658  0.84150  Biso   1.000  C
  H32      1.0000 0.14190  0.72980  0.82330  Biso   1.000  H
  C44      1.0000 0.00660  0.69978  0.79014  Biso   1.000  C
  C45      1.0000 0.93760  0.68270  0.81850  Biso   1.000  C
  H33      1.0000 0.87680  0.67080  0.78670  Biso   1.000  H
  C46      1.0000 0.95830  0.68290  0.89531  Biso   1.000  C
  H34      1.0000 0.90980  0.67150  0.91540  Biso   1.000  H
  C47      1.0000 0.18665  0.93136  0.94988  Biso   1.000  C
  H35      1.0000 0.13990  0.91860  0.97150  Biso   1.000  H
  C48      1.0000 0.18679  0.01230  0.91834  Biso   1.000  C
  C49      1.0000 0.25470  0.02810  0.88830  Biso   1.000  C
  H36      1.0000 0.25900  0.08200  0.86630  Biso   1.000  H
  C50      1.0000 0.31750  0.96367  0.89065  Biso   1.000  C
  H37      1.0000 0.36510  0.97400  0.86940  Biso   1.000  H
  C51      1.0000 0.08290  0.08563  0.97637  Biso   1.000  C
  H38      1.0000 0.10470  0.04910  0.01850  Biso   1.000  H
  C52      1.0000 0.11657  0.07597  0.91764  Biso   1.000  C
  C53      1.0000 0.08200  0.13015  0.85803  Biso   1.000  C
  H39      1.0000 0.10270  0.12550  0.81580  Biso   1.000  H
  C54      1.0000 0.01900  0.18970  0.85928  Biso   1.000  C
  H40      1.0000 0.99530  0.22680  0.81770  Biso   1.000  H
  C55      1.0000 0.56640  0.88300  0.91880  Biso   1.000  C
  C56      1.0000 0.60180  0.94820  0.87530  Biso   1.000  C
  F19      1.0000 0.54370  0.00860  0.84830  Biso   1.000  F
  F20      1.0000 0.60460  0.91090  0.81370  Biso   1.000  F
  F21      1.0000 0.68630  0.96830  0.90920  Biso   1.000  F
  F22      1.0000 0.54150  0.98840  0.82230  Biso   1.000  F
  F23      1.0000 0.66310  0.91730  0.84910  Biso   1.000  F
  F24      1.0000 0.63970  0.01350  0.91820  Biso   1.000  F
  Cu5      1.0000 0.90402  0.70900  0.42281  Biso   1.000  Cu
  O13      1.0000 0.81562  0.78377  0.43652  Biso   1.000  O
  H41      1.0000 0.81530  0.83150  0.41990  Biso   1.000  H
  O14      1.0000 0.98120  0.62508  0.39578  Biso   1.000  O
  O15      1.0000 0.12320  0.65320  0.46897  Biso   1.000  O
  N25      1.0000 0.60850  0.78470  0.41402  Biso   1.000  N
  N26      1.0000 0.54087  0.80201  0.44171  Biso   1.000  N
  N27      1.0000 0.74772  0.62731  0.45091  Biso   1.000  N
  N28      1.0000 0.81396  0.61124  0.42104  Biso   1.000  N
  N29      1.0000 0.48968  0.30283  0.41760  Biso   1.000  N
  N30      1.0000 0.51997  0.35441  0.47535  Biso   1.000  N
  C57      1.0000 0.59210  0.78342  0.34150  Biso   1.000  C
  H42      1.0000 0.64190  0.77020  0.32330  Biso   1.000  H
  C58      1.0000 0.50660  0.80022  0.29014  Biso   1.000  C
  C59      1.0000 0.43760  0.81730  0.31850  Biso   1.000  C
  H43      1.0000 0.37680  0.82920  0.28670  Biso   1.000  H
  C60      1.0000 0.45830  0.81710  0.39531  Biso   1.000  C
  H44      1.0000 0.40980  0.82850  0.41540  Biso   1.000  H
  C61      1.0000 0.68665  0.56864  0.44988  Biso   1.000  C
  H45      1.0000 0.63990  0.58140  0.47150  Biso   1.000  H
  C62      1.0000 0.68679  0.48770  0.41834  Biso   1.000  C
  C63      1.0000 0.75470  0.47190  0.38830  Biso   1.000  C
  H46      1.0000 0.75900  0.41800  0.36630  Biso   1.000  H
  C64      1.0000 0.81750  0.53633  0.39065  Biso   1.000  C
  H47      1.0000 0.86510  0.52600  0.36940  Biso   1.000  H
  C65      1.0000 0.58290  0.41437  0.47637  Biso   1.000  C
  H48      1.0000 0.60470  0.45090  0.51850  Biso   1.000  H
  C66      1.0000 0.61657  0.42403  0.41764  Biso   1.000  C
  C67      1.0000 0.58200  0.36985  0.35803  Biso   1.000  C
  H49      1.0000 0.60270  0.37450  0.31580  Biso   1.000  H
  C68      1.0000 0.51900  0.31030  0.35928  Biso   1.000  C
  H50      1.0000 0.49530  0.27320  0.31770  Biso   1.000  H
  C69      1.0000 0.06640  0.61700  0.41880  Biso   1.000  C
  C70      1.0000 0.10180  0.55180  0.37530  Biso   1.000  C
  F25      1.0000 0.04370  0.49140  0.34830  Biso   1.000  F
  F26      1.0000 0.10460  0.58910  0.31370  Biso   1.000  F
  F27      1.0000 0.18630  0.53170  0.40920  Biso   1.000  F
  F28      1.0000 0.04150  0.51160  0.32230  Biso   1.000  F
  F29      1.0000 0.16310  0.58270  0.34910  Biso   1.000  F
  F30      1.0000 0.13970  0.48650  0.41820  Biso   1.000  F
  Cu6      1.0000 0.40402  0.20900  0.42281  Biso   1.000  Cu
  O16      1.0000 0.31562  0.28377  0.43652  Biso   1.000  O
  H51      1.0000 0.31530  0.33150  0.41990  Biso   1.000  H
  O17      1.0000 0.48120  0.12508  0.39578  Biso   1.000  O
  O18      1.0000 0.62320  0.15320  0.46897  Biso   1.000  O
  N31      1.0000 0.10850  0.28470  0.41402  Biso   1.000  N
  N32      1.0000 0.04087  0.30201  0.44171  Biso   1.000  N
  N33      1.0000 0.24772  0.12731  0.45091  Biso   1.000  N
  N34      1.0000 0.31396  0.11124  0.42104  Biso   1.000  N
  N35      1.0000 0.98968  0.80283  0.41760  Biso   1.000  N
  N36      1.0000 0.01997  0.85441  0.47535  Biso   1.000  N
  C71      1.0000 0.09210  0.28342  0.34150  Biso   1.000  C
  H52      1.0000 0.14190  0.27020  0.32330  Biso   1.000  H
  C72      1.0000 0.00660  0.30022  0.29014  Biso   1.000  C
  C73      1.0000 0.93760  0.31730  0.31850  Biso   1.000  C
  H53      1.0000 0.87680  0.32920  0.28670  Biso   1.000  H
  C74      1.0000 0.95830  0.31710  0.39531  Biso   1.000  C
  H54      1.0000 0.90980  0.32850  0.41540  Biso   1.000  H
  C75      1.0000 0.18665  0.06864  0.44988  Biso   1.000  C
  H55      1.0000 0.13990  0.08140  0.47150  Biso   1.000  H
  C76      1.0000 0.18679  0.98770  0.41834  Biso   1.000  C
  C77      1.0000 0.25470  0.97190  0.38830  Biso   1.000  C
  H56      1.0000 0.25900  0.91800  0.36630  Biso   1.000  H
  C78      1.0000 0.31750  0.03633  0.39065  Biso   1.000  C
  H57      1.0000 0.36510  0.02600  0.36940  Biso   1.000  H
  C79      1.0000 0.08290  0.91437  0.47637  Biso   1.000  C
  H58      1.0000 0.10470  0.95090  0.51850  Biso   1.000  H
  C80      1.0000 0.11657  0.92403  0.41764  Biso   1.000  C
  C81      1.0000 0.08200  0.86985  0.35803  Biso   1.000  C
  H59      1.0000 0.10270  0.87450  0.31580  Biso   1.000  H
  C82      1.0000 0.01900  0.81030  0.35928  Biso   1.000  C
  H60      1.0000 0.99530  0.77320  0.31770  Biso   1.000  H
  C83      1.0000 0.56640  0.11700  0.41880  Biso   1.000  C
  C84      1.0000 0.60180  0.05180  0.37530  Biso   1.000  C
  F31      1.0000 0.54370  0.99140  0.34830  Biso   1.000  F
  F32      1.0000 0.60460  0.08910  0.31370  Biso   1.000  F
  F33      1.0000 0.68630  0.03170  0.40920  Biso   1.000  F
  F34      1.0000 0.54150  0.01160  0.32230  Biso   1.000  F
  F35      1.0000 0.66310  0.08270  0.34910  Biso   1.000  F
  F36      1.0000 0.63970  0.98650  0.41820  Biso   1.000  F
  Cu7      1.0000 0.09598  0.70900  0.07719  Biso   1.000  Cu
  O19      1.0000 0.18438  0.78377  0.06348  Biso   1.000  O
  H61      1.0000 0.18470  0.83150  0.08010  Biso   1.000  H
  O20      1.0000 0.01880  0.62508  0.10422  Biso   1.000  O
  O21      1.0000 0.87680  0.65320  0.03103  Biso   1.000  O
  N37      1.0000 0.39150  0.78470  0.08598  Biso   1.000  N
  N38      1.0000 0.45913  0.80201  0.05829  Biso   1.000  N
  N39      1.0000 0.25228  0.62731  0.04909  Biso   1.000  N
  N40      1.0000 0.18604  0.61124  0.07896  Biso   1.000  N
  N41      1.0000 0.51032  0.30283  0.08240  Biso   1.000  N
  N42      1.0000 0.48003  0.35441  0.02465  Biso   1.000  N
  C85      1.0000 0.40790  0.78342  0.15850  Biso   1.000  C
  H62      1.0000 0.35810  0.77020  0.17670  Biso   1.000  H
  C86      1.0000 0.49340  0.80022  0.20986  Biso   1.000  C
  C87      1.0000 0.56240  0.81730  0.18150  Biso   1.000  C
  H63      1.0000 0.62320  0.82920  0.21330  Biso   1.000  H
  C88      1.0000 0.54170  0.81710  0.10469  Biso   1.000  C
  H64      1.0000 0.59020  0.82850  0.08460  Biso   1.000  H
  C89      1.0000 0.31335  0.56864  0.05012  Biso   1.000  C
  H65      1.0000 0.36010  0.58140  0.02850  Biso   1.000  H
  C90      1.0000 0.31321  0.48770  0.08166  Biso   1.000  C
  C91      1.0000 0.24530  0.47190  0.11170  Biso   1.000  C
  H66      1.0000 0.24100  0.41800  0.13370  Biso   1.000  H
  C92      1.0000 0.18250  0.53633  0.10935  Biso   1.000  C
  H67      1.0000 0.13490  0.52600  0.13060  Biso   1.000  H
  C93      1.0000 0.41710  0.41437  0.02363  Biso   1.000  C
  H68      1.0000 0.39530  0.45090  0.98150  Biso   1.000  H
  C94      1.0000 0.38343  0.42403  0.08236  Biso   1.000  C
  C95      1.0000 0.41800  0.36985  0.14197  Biso   1.000  C
  H69      1.0000 0.39730  0.37450  0.18420  Biso   1.000  H
  C96      1.0000 0.48100  0.31030  0.14072  Biso   1.000  C
  H70      1.0000 0.50470  0.27320  0.18230  Biso   1.000  H
  C97      1.0000 0.93360  0.61700  0.08120  Biso   1.000  C
  C98      1.0000 0.89820  0.55180  0.12470  Biso   1.000  C
  F37      1.0000 0.95630  0.49140  0.15170  Biso   1.000  F
  F38      1.0000 0.89540  0.58910  0.18630  Biso   1.000  F
  F39      1.0000 0.81370  0.53170  0.09080  Biso   1.000  F
  F40      1.0000 0.95850  0.51160  0.17770  Biso   1.000  F
  F41      1.0000 0.83690  0.58270  0.15090  Biso   1.000  F
  F42      1.0000 0.86030  0.48650  0.08180  Biso   1.000  F
  Cu8      1.0000 0.59598  0.20900  0.07719  Biso   1.000  Cu
  O22      1.0000 0.68438  0.28377  0.06348  Biso   1.000  O
  H71      1.0000 0.68470  0.33150  0.08010  Biso   1.000  H
  O23      1.0000 0.51880  0.12508  0.10422  Biso   1.000  O
  O24      1.0000 0.37680  0.15320  0.03103  Biso   1.000  O
  N43      1.0000 0.89150  0.28470  0.08598  Biso   1.000  N
  N44      1.0000 0.95913  0.30201  0.05829  Biso   1.000  N
  N45      1.0000 0.75228  0.12731  0.04909  Biso   1.000  N
  N46      1.0000 0.68604  0.11124  0.07896  Biso   1.000  N
  N47      1.0000 0.01032  0.80283  0.08240  Biso   1.000  N
  N48      1.0000 0.98003  0.85441  0.02465  Biso   1.000  N
  C99      1.0000 0.90790  0.28342  0.15850  Biso   1.000  C
  H72      1.0000 0.85810  0.27020  0.17670  Biso   1.000  H
  C100     1.0000 0.99340  0.30022  0.20986  Biso   1.000  C
  C101     1.0000 0.06240  0.31730  0.18150  Biso   1.000  C
  H73      1.0000 0.12320  0.32920  0.21330  Biso   1.000  H
  C102     1.0000 0.04170  0.31710  0.10469  Biso   1.000  C
  H74      1.0000 0.09020  0.32850  0.08460  Biso   1.000  H
  C103     1.0000 0.81335  0.06864  0.05012  Biso   1.000  C
  H75      1.0000 0.86010  0.08140  0.02850  Biso   1.000  H
  C104     1.0000 0.81321  0.98770  0.08166  Biso   1.000  C
  C105     1.0000 0.74530  0.97190  0.11170  Biso   1.000  C
  H76      1.0000 0.74100  0.91800  0.13370  Biso   1.000  H
  C106     1.0000 0.68250  0.03633  0.10935  Biso   1.000  C
  H77      1.0000 0.63490  0.02600  0.13060  Biso   1.000  H
  C107     1.0000 0.91710  0.91437  0.02363  Biso   1.000  C
  H78      1.0000 0.89530  0.95090  0.98150  Biso   1.000  H
  C108     1.0000 0.88343  0.92403  0.08236  Biso   1.000  C
  C109     1.0000 0.91800  0.86985  0.14197  Biso   1.000  C
  H79      1.0000 0.89730  0.87450  0.18420  Biso   1.000  H
  C110     1.0000 0.98100  0.81030  0.14072  Biso   1.000  C
  H80      1.0000 0.00470  0.77320  0.18230  Biso   1.000  H
  C111     1.0000 0.43360  0.11700  0.08120  Biso   1.000  C
  C112     1.0000 0.39820  0.05180  0.12470  Biso   1.000  C
  F43      1.0000 0.45630  0.99140  0.15170  Biso   1.000  F
  F44      1.0000 0.39540  0.08910  0.18630  Biso   1.000  F
  F45      1.0000 0.31370  0.03170  0.09080  Biso   1.000  F
  F46      1.0000 0.45850  0.01160  0.17770  Biso   1.000  F
  F47      1.0000 0.33690  0.08270  0.15090  Biso   1.000  F
  F48      1.0000 0.36030  0.98650  0.08180  Biso   1.000  F
  Cu9      1.0000 0.25000  0.25000  0.50000  Biso   1.000  Cu
  Cu10     1.0000 0.75000  0.25000  0.00000  Biso   1.000  Cu
  Cu11     1.0000 0.75000  0.75000  0.50000  Biso   1.000  Cu
  Cu12     1.0000 0.25000  0.75000  0.00000  Biso   1.000  Cu
