data_image0
_cell_length_a       13.9917
_cell_length_b       13.9917
_cell_length_c       13.9917
_cell_angle_alpha    104.803
_cell_angle_beta     104.803
_cell_angle_gamma    104.803

_symmetry_space_group_name_H-M    P 1
_symmetry_int_tables_number       1

loop_
  _symmetry_equiv_pos_as_xyz
  'x, y, z'

loop_
  _atom_site_label
  _atom_site_occupancy
  _atom_site_fract_x
  _atom_site_fract_y
  _atom_site_fract_z
  _atom_site_thermal_displace_type
  _atom_site_B_iso_or_equiv
  _atom_site_type_symbol
  Ag1      1.0000 0.78492  0.78492  0.51416  Biso   1.000  Ag
  Ag2      1.0000 0.51416  0.78492  0.78492  Biso   1.000  Ag
  Ag3      1.0000 0.78492  0.51416  0.78492  Biso   1.000  Ag
  Ag4      1.0000 0.21508  0.21508  0.48584  Biso   1.000  Ag
  Ag5      1.0000 0.21508  0.48584  0.21508  Biso   1.000  Ag
  Ag6      1.0000 0.48584  0.21508  0.21508  Biso   1.000  Ag
  Ag7      1.0000 0.00000  0.27741  0.72259  Biso   1.000  Ag
  Ag8      1.0000 0.72259  0.00000  0.27741  Biso   1.000  Ag
  Ag9      1.0000 0.27741  0.72259  0.00000  Biso   1.000  Ag
  Ag10     1.0000 0.00000  0.72259  0.27741  Biso   1.000  Ag
  Ag11     1.0000 0.27741  0.00000  0.72259  Biso   1.000  Ag
  Ag12     1.0000 0.72259  0.27741  0.00000  Biso   1.000  Ag
  H1       1.0000 0.52510  0.64630  0.28830  Biso   1.000  H
  H2       1.0000 0.82100  0.09760  0.58180  Biso   1.000  H
  H3       1.0000 0.76910  0.97630  0.52400  Biso   1.000  H
  H4       1.0000 0.80890  0.60320  0.53240  Biso   1.000  H
  H5       1.0000 0.17420  0.24490  0.75930  Biso   1.000  H
  H6       1.0000 0.28830  0.52510  0.64630  Biso   1.000  H
  H7       1.0000 0.58180  0.82100  0.09760  Biso   1.000  H
  H8       1.0000 0.52400  0.76910  0.97630  Biso   1.000  H
  H9       1.0000 0.53240  0.80890  0.60320  Biso   1.000  H
  H10      1.0000 0.75930  0.17420  0.24490  Biso   1.000  H
  H11      1.0000 0.64630  0.28830  0.52510  Biso   1.000  H
  H12      1.0000 0.09760  0.58180  0.82100  Biso   1.000  H
  H13      1.0000 0.97630  0.52400  0.76910  Biso   1.000  H
  H14      1.0000 0.60320  0.53240  0.80890  Biso   1.000  H
  H15      1.0000 0.24490  0.75930  0.17420  Biso   1.000  H
  H16      1.0000 0.35370  0.47490  0.71170  Biso   1.000  H
  H17      1.0000 0.90240  0.17900  0.41820  Biso   1.000  H
  H18      1.0000 0.02370  0.23090  0.47600  Biso   1.000  H
  H19      1.0000 0.39680  0.19110  0.46760  Biso   1.000  H
  H20      1.0000 0.75510  0.82580  0.24070  Biso   1.000  H
  H21      1.0000 0.47490  0.71170  0.35370  Biso   1.000  H
  H22      1.0000 0.17900  0.41820  0.90240  Biso   1.000  H
  H23      1.0000 0.23090  0.47600  0.02370  Biso   1.000  H
  H24      1.0000 0.19110  0.46760  0.39680  Biso   1.000  H
  H25      1.0000 0.82580  0.24070  0.75510  Biso   1.000  H
  H26      1.0000 0.71170  0.35370  0.47490  Biso   1.000  H
  H27      1.0000 0.41820  0.90240  0.17900  Biso   1.000  H
  H28      1.0000 0.47600  0.02370  0.23090  Biso   1.000  H
  H29      1.0000 0.46760  0.39680  0.19110  Biso   1.000  H
  H30      1.0000 0.24070  0.75510  0.82580  Biso   1.000  H
  H31      1.0000 0.47490  0.35370  0.71170  Biso   1.000  H
  H32      1.0000 0.17900  0.90240  0.41820  Biso   1.000  H
  H33      1.0000 0.23090  0.02370  0.47600  Biso   1.000  H
  H34      1.0000 0.19110  0.39680  0.46760  Biso   1.000  H
  H35      1.0000 0.82580  0.75510  0.24070  Biso   1.000  H
  H36      1.0000 0.71170  0.47490  0.35370  Biso   1.000  H
  H37      1.0000 0.41820  0.17900  0.90240  Biso   1.000  H
  H38      1.0000 0.47600  0.23090  0.02370  Biso   1.000  H
  H39      1.0000 0.46760  0.19110  0.39680  Biso   1.000  H
  H40      1.0000 0.24070  0.82580  0.75510  Biso   1.000  H
  H41      1.0000 0.35370  0.71170  0.47490  Biso   1.000  H
  H42      1.0000 0.90240  0.41820  0.17900  Biso   1.000  H
  H43      1.0000 0.02370  0.47600  0.23090  Biso   1.000  H
  H44      1.0000 0.39680  0.46760  0.19110  Biso   1.000  H
  H45      1.0000 0.75510  0.24070  0.82580  Biso   1.000  H
  H46      1.0000 0.64630  0.52510  0.28830  Biso   1.000  H
  H47      1.0000 0.09760  0.82100  0.58180  Biso   1.000  H
  H48      1.0000 0.97630  0.76910  0.52400  Biso   1.000  H
  H49      1.0000 0.60320  0.80890  0.53240  Biso   1.000  H
  H50      1.0000 0.24490  0.17420  0.75930  Biso   1.000  H
  H51      1.0000 0.52510  0.28830  0.64630  Biso   1.000  H
  H52      1.0000 0.82100  0.58180  0.09760  Biso   1.000  H
  H53      1.0000 0.76910  0.52400  0.97630  Biso   1.000  H
  H54      1.0000 0.80890  0.53240  0.60320  Biso   1.000  H
  H55      1.0000 0.17420  0.75930  0.24490  Biso   1.000  H
  H56      1.0000 0.28830  0.64630  0.52510  Biso   1.000  H
  H57      1.0000 0.58180  0.09760  0.82100  Biso   1.000  H
  H58      1.0000 0.52400  0.97630  0.76910  Biso   1.000  H
  H59      1.0000 0.53240  0.60320  0.80890  Biso   1.000  H
  H60      1.0000 0.75930  0.24490  0.17420  Biso   1.000  H
  C1       1.0000 0.92000  0.02290  0.59593  Biso   1.000  C
  C2       1.0000 0.59233  0.80276  0.32351  Biso   1.000  C
  C3       1.0000 0.59593  0.92000  0.02290  Biso   1.000  C
  C4       1.0000 0.32351  0.59233  0.80276  Biso   1.000  C
  C5       1.0000 0.02290  0.59593  0.92000  Biso   1.000  C
  C6       1.0000 0.80276  0.32351  0.59233  Biso   1.000  C
  C7       1.0000 0.97710  0.08000  0.40407  Biso   1.000  C
  C8       1.0000 0.19724  0.40767  0.67649  Biso   1.000  C
  C9       1.0000 0.08000  0.40407  0.97710  Biso   1.000  C
  C10      1.0000 0.40767  0.67649  0.19724  Biso   1.000  C
  C11      1.0000 0.40407  0.97710  0.08000  Biso   1.000  C
  C12      1.0000 0.67649  0.19724  0.40767  Biso   1.000  C
  C13      1.0000 0.08000  0.97710  0.40407  Biso   1.000  C
  C14      1.0000 0.40767  0.19724  0.67649  Biso   1.000  C
  C15      1.0000 0.40407  0.08000  0.97710  Biso   1.000  C
  C16      1.0000 0.67649  0.40767  0.19724  Biso   1.000  C
  C17      1.0000 0.97710  0.40407  0.08000  Biso   1.000  C
  C18      1.0000 0.19724  0.67649  0.40767  Biso   1.000  C
  C19      1.0000 0.02290  0.92000  0.59593  Biso   1.000  C
  C20      1.0000 0.80276  0.59233  0.32351  Biso   1.000  C
  C21      1.0000 0.92000  0.59593  0.02290  Biso   1.000  C
  C22      1.0000 0.59233  0.32351  0.80276  Biso   1.000  C
  C23      1.0000 0.59593  0.02290  0.92000  Biso   1.000  C
  C24      1.0000 0.32351  0.80276  0.59233  Biso   1.000  C
  C25      1.0000 0.09642  0.09642  0.68197  Biso   1.000  C
  C26      1.0000 0.68197  0.09642  0.09642  Biso   1.000  C
  C27      1.0000 0.09642  0.68197  0.09642  Biso   1.000  C
  C28      1.0000 0.90358  0.90358  0.31803  Biso   1.000  C
  C29      1.0000 0.90358  0.31803  0.90358  Biso   1.000  C
  C30      1.0000 0.31803  0.90358  0.90358  Biso   1.000  C
  C31      1.0000 0.50000  0.70475  0.29525  Biso   1.000  C
  C32      1.0000 0.29525  0.50000  0.70475  Biso   1.000  C
  C33      1.0000 0.70475  0.29525  0.50000  Biso   1.000  C
  C34      1.0000 0.50000  0.29525  0.70475  Biso   1.000  C
  C35      1.0000 0.70475  0.50000  0.29525  Biso   1.000  C
  C36      1.0000 0.29525  0.70475  0.50000  Biso   1.000  C
  C37      1.0000 0.71770  0.61430  0.61430  Biso   1.000  C
  C38      1.0000 0.61430  0.71770  0.61430  Biso   1.000  C
  C39      1.0000 0.61430  0.61430  0.71770  Biso   1.000  C
  C40      1.0000 0.38570  0.28230  0.38570  Biso   1.000  C
  C41      1.0000 0.28230  0.38570  0.38570  Biso   1.000  C
  C42      1.0000 0.38570  0.38570  0.28230  Biso   1.000  C
  N1       1.0000 0.82669  0.03337  0.56372  Biso   1.000  N
  N2       1.0000 0.00333  0.11062  0.65510  Biso   1.000  N
  N3       1.0000 0.56372  0.82669  0.03337  Biso   1.000  N
  N4       1.0000 0.65510  0.00333  0.11062  Biso   1.000  N
  N5       1.0000 0.03337  0.56372  0.82669  Biso   1.000  N
  N6       1.0000 0.11062  0.65510  0.00333  Biso   1.000  N
  N7       1.0000 0.96663  0.17331  0.43628  Biso   1.000  N
  N8       1.0000 0.88938  0.99667  0.34490  Biso   1.000  N
  N9       1.0000 0.17331  0.43628  0.96663  Biso   1.000  N
  N10      1.0000 0.99667  0.34490  0.88938  Biso   1.000  N
  N11      1.0000 0.43628  0.96663  0.17331  Biso   1.000  N
  N12      1.0000 0.34490  0.88938  0.99667  Biso   1.000  N
  N13      1.0000 0.17331  0.96663  0.43628  Biso   1.000  N
  N14      1.0000 0.99667  0.88938  0.34490  Biso   1.000  N
  N15      1.0000 0.43628  0.17331  0.96663  Biso   1.000  N
  N16      1.0000 0.34490  0.99667  0.88938  Biso   1.000  N
  N17      1.0000 0.96663  0.43628  0.17331  Biso   1.000  N
  N18      1.0000 0.88938  0.34490  0.99667  Biso   1.000  N
  N19      1.0000 0.03337  0.82669  0.56372  Biso   1.000  N
  N20      1.0000 0.11062  0.00333  0.65510  Biso   1.000  N
  N21      1.0000 0.82669  0.56372  0.03337  Biso   1.000  N
  N22      1.0000 0.00333  0.65510  0.11062  Biso   1.000  N
  N23      1.0000 0.56372  0.03337  0.82669  Biso   1.000  N
  N24      1.0000 0.65510  0.11062  0.00333  Biso   1.000  N
  N25      1.0000 0.92562  0.92562  0.56697  Biso   1.000  N
  N26      1.0000 0.68435  0.68435  0.57700  Biso   1.000  N
  N27      1.0000 0.18087  0.18087  0.73987  Biso   1.000  N
  N28      1.0000 0.56697  0.92562  0.92562  Biso   1.000  N
  N29      1.0000 0.57700  0.68435  0.68435  Biso   1.000  N
  N30      1.0000 0.73987  0.18087  0.18087  Biso   1.000  N
  N31      1.0000 0.92562  0.56697  0.92562  Biso   1.000  N
  N32      1.0000 0.68435  0.57700  0.68435  Biso   1.000  N
  N33      1.0000 0.18087  0.73987  0.18087  Biso   1.000  N
  N34      1.0000 0.07438  0.07438  0.43303  Biso   1.000  N
  N35      1.0000 0.31565  0.31565  0.42300  Biso   1.000  N
  N36      1.0000 0.81913  0.81913  0.26013  Biso   1.000  N
  N37      1.0000 0.07438  0.43303  0.07438  Biso   1.000  N
  N38      1.0000 0.31565  0.42300  0.31565  Biso   1.000  N
  N39      1.0000 0.81913  0.26013  0.81913  Biso   1.000  N
  N40      1.0000 0.43303  0.07438  0.07438  Biso   1.000  N
  N41      1.0000 0.42300  0.31565  0.31565  Biso   1.000  N
  N42      1.0000 0.26013  0.81913  0.81913  Biso   1.000  N
  N43      1.0000 0.78570  0.57985  0.57985  Biso   1.000  N
  N44      1.0000 0.57985  0.78570  0.57985  Biso   1.000  N
  N45      1.0000 0.57985  0.57985  0.78570  Biso   1.000  N
  N46      1.0000 0.42015  0.21430  0.42015  Biso   1.000  N
  N47      1.0000 0.21430  0.42015  0.42015  Biso   1.000  N
  N48      1.0000 0.42015  0.42015  0.21430  Biso   1.000  N
  O1       1.0000 0.64533  0.84795  0.41846  Biso   1.000  O
  O2       1.0000 0.61162  0.82964  0.25094  Biso   1.000  O
  O3       1.0000 0.41846  0.64533  0.84795  Biso   1.000  O
  O4       1.0000 0.25094  0.61162  0.82964  Biso   1.000  O
  O5       1.0000 0.84795  0.41846  0.64533  Biso   1.000  O
  O6       1.0000 0.82964  0.25094  0.61162  Biso   1.000  O
  O7       1.0000 0.15205  0.35467  0.58154  Biso   1.000  O
  O8       1.0000 0.17036  0.38838  0.74906  Biso   1.000  O
  O9       1.0000 0.35467  0.58154  0.15205  Biso   1.000  O
  O10      1.0000 0.38838  0.74906  0.17036  Biso   1.000  O
  O11      1.0000 0.58154  0.15205  0.35467  Biso   1.000  O
  O12      1.0000 0.74906  0.17036  0.38838  Biso   1.000  O
  O13      1.0000 0.35467  0.15205  0.58154  Biso   1.000  O
  O14      1.0000 0.38838  0.17036  0.74906  Biso   1.000  O
  O15      1.0000 0.58154  0.35467  0.15205  Biso   1.000  O
  O16      1.0000 0.74906  0.38838  0.17036  Biso   1.000  O
  O17      1.0000 0.15205  0.58154  0.35467  Biso   1.000  O
  O18      1.0000 0.17036  0.74906  0.38838  Biso   1.000  O
  O19      1.0000 0.84795  0.64533  0.41846  Biso   1.000  O
  O20      1.0000 0.82964  0.61162  0.25094  Biso   1.000  O
  O21      1.0000 0.64533  0.41846  0.84795  Biso   1.000  O
  O22      1.0000 0.61162  0.25094  0.82964  Biso   1.000  O
  O23      1.0000 0.41846  0.84795  0.64533  Biso   1.000  O
  O24      1.0000 0.25094  0.82964  0.61162  Biso   1.000  O
