data_image0
_cell_length_a       15.3421
_cell_length_b       15.3421
_cell_length_c       15.3421
_cell_angle_alpha    60
_cell_angle_beta     60
_cell_angle_gamma    60

_symmetry_space_group_name_H-M    P 1
_symmetry_int_tables_number       1

loop_
  _symmetry_equiv_pos_as_xyz
  'x, y, z'

loop_
  _atom_site_label
  _atom_site_occupancy
  _atom_site_fract_x
  _atom_site_fract_y
  _atom_site_fract_z
  _atom_site_thermal_displace_type
  _atom_site_B_iso_or_equiv
  _atom_site_type_symbol
  Zn1      1.0000 0.15416  0.15416  0.53752  Biso   1.000  Zn
  Zn2      1.0000 0.15416  0.15416  0.15416  Biso   1.000  Zn
  Zn3      1.0000 0.53752  0.15416  0.15416  Biso   1.000  Zn
  Zn4      1.0000 0.15416  0.53752  0.15416  Biso   1.000  Zn
  Zn5      1.0000 0.84584  0.84584  0.46248  Biso   1.000  Zn
  Zn6      1.0000 0.84584  0.84584  0.84584  Biso   1.000  Zn
  Zn7      1.0000 0.84584  0.46248  0.84584  Biso   1.000  Zn
  Zn8      1.0000 0.46248  0.84584  0.84584  Biso   1.000  Zn
  Zn9      1.0000 0.25000  0.25000  0.25000  Biso   1.000  Zn
  Zn10     1.0000 0.75000  0.75000  0.75000  Biso   1.000  Zn
  H1       1.0000 0.00000  0.34080  0.65920  Biso   1.000  H
  H2       1.0000 0.34080  0.00000  0.00000  Biso   1.000  H
  H3       1.0000 0.65920  0.00000  0.00000  Biso   1.000  H
  H4       1.0000 0.00000  0.65920  0.34080  Biso   1.000  H
  H5       1.0000 0.00000  0.65920  0.00000  Biso   1.000  H
  H6       1.0000 0.34080  0.00000  0.65920  Biso   1.000  H
  H7       1.0000 0.65920  0.00000  0.34080  Biso   1.000  H
  H8       1.0000 0.00000  0.34080  0.00000  Biso   1.000  H
  H9       1.0000 0.00000  0.00000  0.34080  Biso   1.000  H
  H10      1.0000 0.34080  0.65920  0.00000  Biso   1.000  H
  H11      1.0000 0.65920  0.34080  0.00000  Biso   1.000  H
  H12      1.0000 0.00000  0.00000  0.65920  Biso   1.000  H
  C1       1.0000 0.05360  0.40100  0.49180  Biso   1.000  C
  C2       1.0000 0.40100  0.05360  0.05360  Biso   1.000  C
  C3       1.0000 0.49180  0.05360  0.05360  Biso   1.000  C
  C4       1.0000 0.05360  0.49180  0.40100  Biso   1.000  C
  C5       1.0000 0.05360  0.49180  0.05360  Biso   1.000  C
  C6       1.0000 0.40100  0.05360  0.49180  Biso   1.000  C
  C7       1.0000 0.49180  0.05360  0.40100  Biso   1.000  C
  C8       1.0000 0.05360  0.40100  0.05360  Biso   1.000  C
  C9       1.0000 0.05360  0.05360  0.40100  Biso   1.000  C
  C10      1.0000 0.40100  0.49180  0.05360  Biso   1.000  C
  C11      1.0000 0.49180  0.40100  0.05360  Biso   1.000  C
  C12      1.0000 0.05360  0.05360  0.49180  Biso   1.000  C
  C13      1.0000 0.59900  0.94640  0.50820  Biso   1.000  C
  C14      1.0000 0.94640  0.59900  0.94640  Biso   1.000  C
  C15      1.0000 0.94640  0.50820  0.94640  Biso   1.000  C
  C16      1.0000 0.50820  0.94640  0.59900  Biso   1.000  C
  C17      1.0000 0.50820  0.94640  0.94640  Biso   1.000  C
  C18      1.0000 0.94640  0.59900  0.50820  Biso   1.000  C
  C19      1.0000 0.94640  0.50820  0.59900  Biso   1.000  C
  C20      1.0000 0.59900  0.94640  0.94640  Biso   1.000  C
  C21      1.0000 0.94640  0.94640  0.59900  Biso   1.000  C
  C22      1.0000 0.50820  0.59900  0.94640  Biso   1.000  C
  C23      1.0000 0.59900  0.50820  0.94640  Biso   1.000  C
  C24      1.0000 0.94640  0.94640  0.50820  Biso   1.000  C
  C25      1.0000 0.00000  0.40140  0.59860  Biso   1.000  C
  C26      1.0000 0.40140  0.00000  0.00000  Biso   1.000  C
  C27      1.0000 0.59860  1.00000  0.00000  Biso   1.000  C
  C28      1.0000 0.00000  0.59860  0.40140  Biso   1.000  C
  C29      1.0000 0.00000  0.59860  0.00000  Biso   1.000  C
  C30      1.0000 0.40140  0.00000  0.59860  Biso   1.000  C
  C31      1.0000 0.59860  0.00000  0.40140  Biso   1.000  C
  C32      1.0000 0.00000  0.40140  0.00000  Biso   1.000  C
  C33      1.0000 0.00000  0.00000  0.40140  Biso   1.000  C
  C34      1.0000 0.40140  0.59860  0.00000  Biso   1.000  C
  C35      1.0000 0.59860  0.40140  0.00000  Biso   1.000  C
  C36      1.0000 0.00000  0.00000  0.59860  Biso   1.000  C
  N1       1.0000 0.11420  0.31484  0.45676  Biso   1.000  N
  N2       1.0000 0.31484  0.11420  0.11420  Biso   1.000  N
  N3       1.0000 0.45676  0.11420  0.11420  Biso   1.000  N
  N4       1.0000 0.11420  0.45676  0.31484  Biso   1.000  N
  N5       1.0000 0.11420  0.45676  0.11420  Biso   1.000  N
  N6       1.0000 0.31484  0.11420  0.45676  Biso   1.000  N
  N7       1.0000 0.45676  0.11420  0.31484  Biso   1.000  N
  N8       1.0000 0.11420  0.31484  0.11420  Biso   1.000  N
  N9       1.0000 0.11420  0.11420  0.31484  Biso   1.000  N
  N10      1.0000 0.31484  0.45676  0.11420  Biso   1.000  N
  N11      1.0000 0.45676  0.31484  0.11420  Biso   1.000  N
  N12      1.0000 0.11420  0.11420  0.45676  Biso   1.000  N
  N13      1.0000 0.68516  0.88580  0.54324  Biso   1.000  N
  N14      1.0000 0.88580  0.68516  0.88580  Biso   1.000  N
  N15      1.0000 0.88580  0.54324  0.88580  Biso   1.000  N
  N16      1.0000 0.54324  0.88580  0.68516  Biso   1.000  N
  N17      1.0000 0.54324  0.88580  0.88580  Biso   1.000  N
  N18      1.0000 0.88580  0.68516  0.54324  Biso   1.000  N
  N19      1.0000 0.88580  0.54324  0.68516  Biso   1.000  N
  N20      1.0000 0.68516  0.88580  0.88580  Biso   1.000  N
  N21      1.0000 0.88580  0.88580  0.68516  Biso   1.000  N
  N22      1.0000 0.54324  0.68516  0.88580  Biso   1.000  N
  N23      1.0000 0.68516  0.54324  0.88580  Biso   1.000  N
  N24      1.0000 0.88580  0.88580  0.54324  Biso   1.000  N
  N25      1.0000 0.14810  0.35190  0.35190  Biso   1.000  N
  N26      1.0000 0.35190  0.14810  0.14810  Biso   1.000  N
  N27      1.0000 0.14810  0.35190  0.14810  Biso   1.000  N
  N28      1.0000 0.35190  0.14810  0.35190  Biso   1.000  N
  N29      1.0000 0.14810  0.14810  0.35190  Biso   1.000  N
  N30      1.0000 0.35190  0.35190  0.14810  Biso   1.000  N
  N31      1.0000 0.64810  0.85190  0.64810  Biso   1.000  N
  N32      1.0000 0.85190  0.64810  0.85190  Biso   1.000  N
  N33      1.0000 0.64810  0.85190  0.85190  Biso   1.000  N
  N34      1.0000 0.85190  0.64810  0.64810  Biso   1.000  N
  N35      1.0000 0.85190  0.85190  0.64810  Biso   1.000  N
  N36      1.0000 0.64810  0.64810  0.85190  Biso   1.000  N
  Cl1      1.0000 0.09812  0.09812  0.70564  Biso   1.000  Cl
  Cl2      1.0000 0.09812  0.09812  0.09812  Biso   1.000  Cl
  Cl3      1.0000 0.70564  0.09812  0.09812  Biso   1.000  Cl
  Cl4      1.0000 0.09812  0.70564  0.09812  Biso   1.000  Cl
  Cl5      1.0000 0.90188  0.90188  0.29436  Biso   1.000  Cl
  Cl6      1.0000 0.90188  0.90188  0.90188  Biso   1.000  Cl
  Cl7      1.0000 0.90188  0.29436  0.90188  Biso   1.000  Cl
  Cl8      1.0000 0.29436  0.90188  0.90188  Biso   1.000  Cl
