data_image0
_cell_length_a       6.6597
_cell_length_b       11.0287
_cell_length_c       11.0287
_cell_angle_alpha    71.9104
_cell_angle_beta     90
_cell_angle_gamma    90

_symmetry_space_group_name_H-M    P 1
_symmetry_int_tables_number       1

loop_
  _symmetry_equiv_pos_as_xyz
  'x, y, z'

loop_
  _atom_site_label
  _atom_site_occupancy
  _atom_site_fract_x
  _atom_site_fract_y
  _atom_site_fract_z
  _atom_site_thermal_displace_type
  _atom_site_B_iso_or_equiv
  _atom_site_type_symbol
  Zn1      1.0000 0.88019  0.00000  0.50000  Biso   1.000  Zn
  Zn2      1.0000 0.11981  0.50000  0.00000  Biso   1.000  Zn
  H1       1.0000 0.66590  0.95610  0.14170  Biso   1.000  H
  H2       1.0000 0.44660  0.97990  0.19030  Biso   1.000  H
  H3       1.0000 0.39210  0.26350  0.43290  Biso   1.000  H
  H4       1.0000 0.26030  0.34680  0.31500  Biso   1.000  H
  H5       1.0000 0.61600  0.74300  0.23500  Biso   1.000  H
  H6       1.0000 0.55000  0.18600  0.26000  Biso   1.000  H
  H7       1.0000 0.66590  0.04390  0.85830  Biso   1.000  H
  H8       1.0000 0.44660  0.02010  0.80970  Biso   1.000  H
  H9       1.0000 0.39210  0.73650  0.56710  Biso   1.000  H
  H10      1.0000 0.26030  0.65320  0.68500  Biso   1.000  H
  H11      1.0000 0.61600  0.25700  0.76500  Biso   1.000  H
  H12      1.0000 0.55000  0.81400  0.74000  Biso   1.000  H
  H13      1.0000 0.33410  0.14170  0.95610  Biso   1.000  H
  H14      1.0000 0.55340  0.19030  0.97990  Biso   1.000  H
  H15      1.0000 0.60790  0.43290  0.26350  Biso   1.000  H
  H16      1.0000 0.73970  0.31500  0.34680  Biso   1.000  H
  H17      1.0000 0.38400  0.23500  0.74300  Biso   1.000  H
  H18      1.0000 0.45000  0.26000  0.18600  Biso   1.000  H
  H19      1.0000 0.33410  0.85830  0.04390  Biso   1.000  H
  H20      1.0000 0.55340  0.80970  0.02010  Biso   1.000  H
  H21      1.0000 0.60790  0.56710  0.73650  Biso   1.000  H
  H22      1.0000 0.73970  0.68500  0.65320  Biso   1.000  H
  H23      1.0000 0.38400  0.76500  0.25700  Biso   1.000  H
  H24      1.0000 0.45000  0.74000  0.81400  Biso   1.000  H
  C1       1.0000 0.56350  0.92146  0.20866  Biso   1.000  C
  C2       1.0000 0.65000  0.91255  0.33855  Biso   1.000  C
  C3       1.0000 0.33470  0.26557  0.34957  Biso   1.000  C
  C4       1.0000 0.19080  0.15498  0.36858  Biso   1.000  C
  C5       1.0000 0.56350  0.07854  0.79134  Biso   1.000  C
  C6       1.0000 0.65000  0.08745  0.66145  Biso   1.000  C
  C7       1.0000 0.33470  0.73443  0.65043  Biso   1.000  C
  C8       1.0000 0.19080  0.84502  0.63142  Biso   1.000  C
  C9       1.0000 0.43650  0.20866  0.92146  Biso   1.000  C
  C10      1.0000 0.35000  0.33855  0.91255  Biso   1.000  C
  C11      1.0000 0.66530  0.34957  0.26557  Biso   1.000  C
  C12      1.0000 0.80920  0.36858  0.15498  Biso   1.000  C
  C13      1.0000 0.43650  0.79134  0.07854  Biso   1.000  C
  C14      1.0000 0.35000  0.66145  0.08745  Biso   1.000  C
  C15      1.0000 0.66530  0.65043  0.73443  Biso   1.000  C
  C16      1.0000 0.80920  0.63142  0.84502  Biso   1.000  C
  N1       1.0000 0.50000  0.79220  0.20780  Biso   1.000  N
  N2       1.0000 0.50000  0.20780  0.79220  Biso   1.000  N
  N3       1.0000 0.50000  0.26085  0.26085  Biso   1.000  N
  N4       1.0000 0.50000  0.73915  0.73915  Biso   1.000  N
  O1       1.0000 0.70980  0.01902  0.34892  Biso   1.000  O
  O2       1.0000 0.66010  0.80986  0.42190  Biso   1.000  O
  O3       1.0000 0.05140  0.15236  0.44854  Biso   1.000  O
  O4       1.0000 0.21590  0.07865  0.30985  Biso   1.000  O
  O5       1.0000 0.70980  0.98098  0.65108  Biso   1.000  O
  O6       1.0000 0.66010  0.19014  0.57810  Biso   1.000  O
  O7       1.0000 0.05140  0.84764  0.55146  Biso   1.000  O
  O8       1.0000 0.21590  0.92135  0.69015  Biso   1.000  O
  O9       1.0000 0.29020  0.34892  0.01902  Biso   1.000  O
  O10      1.0000 0.33990  0.42190  0.80986  Biso   1.000  O
  O11      1.0000 0.94860  0.44854  0.15236  Biso   1.000  O
  O12      1.0000 0.78410  0.30985  0.07865  Biso   1.000  O
  O13      1.0000 0.29020  0.65108  0.98098  Biso   1.000  O
  O14      1.0000 0.33990  0.57810  0.19014  Biso   1.000  O
  O15      1.0000 0.94860  0.55146  0.84764  Biso   1.000  O
  O16      1.0000 0.78410  0.69015  0.92135  Biso   1.000  O
