data_image0
_cell_length_a       10.2293
_cell_length_b       34.4803
_cell_length_c       10.7355
_cell_angle_alpha    90
_cell_angle_beta     109.985
_cell_angle_gamma    90

_symmetry_space_group_name_H-M    "P 1"
_symmetry_int_tables_number       1

loop_
  _symmetry_equiv_pos_as_xyz
  'x, y, z'

loop_
  _atom_site_label
  _atom_site_occupancy
  _atom_site_fract_x
  _atom_site_fract_y
  _atom_site_fract_z
  _atom_site_thermal_displace_type
  _atom_site_B_iso_or_equiv
  _atom_site_type_symbol
  O1       1.0000 0.24710  0.04104  0.83690  Biso   1.000  O
  C1       1.0000 0.35870  0.03120  0.81730  Biso   1.000  C
  H1       1.0000 0.41110  0.04890  0.78560  Biso   1.000  H
  C2       1.0000 0.32770  0.96260  0.89980  Biso   1.000  C
  H2       1.0000 0.24670  0.97480  0.91270  Biso   1.000  H
  H3       1.0000 0.39070  0.95290  0.98490  Biso   1.000  H
  H4       1.0000 0.29680  0.94100  0.83740  Biso   1.000  H
  C3       1.0000 0.52960  0.97840  0.82770  Biso   1.000  C
  H5       1.0000 0.57230  0.00040  0.79840  Biso   1.000  H
  H6       1.0000 0.50830  0.95790  0.76040  Biso   1.000  H
  H7       1.0000 0.59420  0.96840  0.91160  Biso   1.000  H
  N1       1.0000 0.40040  0.99120  0.84660  Biso   1.000  N
  C4       1.0000 0.57050  0.11748  0.52460  Biso   1.000  C
  C5       1.0000 0.04460  0.13250  0.44720  Biso   1.000  C
  C6       1.0000 0.02150  0.17776  0.84530  Biso   1.000  C
  C7       1.0000 0.04210  0.21492  0.92220  Biso   1.000  C
  C8       1.0000 0.10950  0.21496  0.06020  Biso   1.000  C
  C9       1.0000 0.13250  0.17782  0.13830  Biso   1.000  C
  C10      1.0000 0.90330  0.06999  0.84260  Biso   1.000  C
  C11      1.0000 0.96060  0.03481  0.92790  Biso   1.000  C
  C12      1.0000 0.89000  0.00008  0.88230  Biso   1.000  C
  H8       1.0000 0.81450  0.00010  0.80070  Biso   1.000  H
  C13      1.0000 0.92640  0.96543  0.95230  Biso   1.000  C
  C14      1.0000 0.84160  0.93005  0.89250  Biso   1.000  C
  C15      1.0000 0.43120  0.14330  0.99290  Biso   1.000  C
  H9       1.0000 0.36740  0.15040  0.03580  Biso   1.000  H
  C16      1.0000 0.65680  0.15190  0.97150  Biso   1.000  C
  H10      1.0000 0.65020  0.12440  0.94700  Biso   1.000  H
  H11      1.0000 0.74920  0.15720  0.03610  Biso   1.000  H
  H12      1.0000 0.64200  0.16780  0.89230  Biso   1.000  H
  C17      1.0000 0.58350  0.19250  0.12780  Biso   1.000  C
  H13      1.0000 0.60490  0.21630  0.08850  Biso   1.000  H
  H14      1.0000 0.66380  0.18520  0.20510  Biso   1.000  H
  H15      1.0000 0.50280  0.19700  0.15540  Biso   1.000  H
  N2       1.0000 0.69860  0.11731  0.51840  Biso   1.000  N
  N3       1.0000 0.67940  0.11653  0.38660  Biso   1.000  N
  N4       1.0000 0.54790  0.11611  0.31910  Biso   1.000  N
  N5       1.0000 0.47450  0.11689  0.40410  Biso   1.000  N
  N6       1.0000 0.54600  0.12172  0.64020  Biso   1.000  N
  H16      1.0000 0.62110  0.11290  0.70790  Biso   1.000  H
  H17      1.0000 0.46990  0.10740  0.63590  Biso   1.000  H
  N7       1.0000 0.03030  0.12419  0.56480  Biso   1.000  N
  N8       1.0000 0.15620  0.11135  0.64320  Biso   1.000  N
  N9       1.0000 0.24260  0.11134  0.57900  Biso   1.000  N
  N10      1.0000 0.17630  0.12455  0.45430  Biso   1.000  N
  N11      1.0000 0.94370  0.14633  0.34070  Biso   1.000  N
  H18      1.0000 0.86620  0.13150  0.32520  Biso   1.000  H
  H19      1.0000 0.97240  0.14520  0.26940  Biso   1.000  H
  N12      1.0000 0.55190  0.16103  0.02930  Biso   1.000  N
  O2       1.0000 0.12350  0.15594  0.86700  Biso   1.000  O
  O3       1.0000 0.90160  0.17244  0.75760  Biso   1.000  O
  O4       1.0000 0.03170  0.15520  0.12020  Biso   1.000  O
  O5       1.0000 0.25410  0.17227  0.22340  Biso   1.000  O
  O6       1.0000 0.97640  0.08396  0.77720  Biso   1.000  O
  O7       1.0000 0.78560  0.08145  0.83110  Biso   1.000  O
  O8       1.0000 0.81190  0.92641  0.76880  Biso   1.000  O
  O9       1.0000 0.80070  0.90712  0.96070  Biso   1.000  O
  O10      1.0000 0.39470  0.11776  0.90560  Biso   1.000  O
  Zn1      1.0000 0.88207  0.12613  0.64898  Biso   1.000  Zn
  Zn2      1.0000 0.19428  0.09794  0.84884  Biso   1.000  Zn
  Zn3      1.0000 0.26865  0.12279  0.31482  Biso   1.000  Zn
  O11      1.0000 0.94900  0.99830  0.50600  Biso   1.000  O
  C18      1.0000 0.15560  0.02080  0.75020  Biso   1.000  C
  H20      1.0000 0.07800  0.03250  0.68490  Biso   1.000  H
  C19      1.0000 0.29710  0.96020  0.85190  Biso   1.000  C
  H21      1.0000 0.36890  0.97960  0.89290  Biso   1.000  H
  H22      1.0000 0.33410  0.94070  0.80620  Biso   1.000  H
  H23      1.0000 0.26910  0.94750  0.92060  Biso   1.000  H
  C20      1.0000 0.07500  0.95390  0.65990  Biso   1.000  C
  H24      1.0000 0.05640  0.93110  0.70570  Biso   1.000  H
  H25      1.0000 0.11300  0.94560  0.59190  Biso   1.000  H
  H26      1.0000 0.98820  0.96820  0.61800  Biso   1.000  H
  N13      1.0000 0.17620  0.97920  0.75630  Biso   1.000  N
  O12      1.0000 0.01500  0.97180  0.57600  Biso   1.000  O
  O13      1.0000 0.75290  0.54104  0.16310  Biso   1.000  O
  C21      1.0000 0.64130  0.53120  0.18270  Biso   1.000  C
  H27      1.0000 0.58890  0.54890  0.21440  Biso   1.000  H
  C22      1.0000 0.67230  0.46260  0.10020  Biso   1.000  C
  H28      1.0000 0.75330  0.47480  0.08730  Biso   1.000  H
  H29      1.0000 0.60930  0.45290  0.01510  Biso   1.000  H
  H30      1.0000 0.70320  0.44100  0.16260  Biso   1.000  H
  C23      1.0000 0.47040  0.47840  0.17230  Biso   1.000  C
  H31      1.0000 0.42770  0.50040  0.20160  Biso   1.000  H
  H32      1.0000 0.49170  0.45790  0.23960  Biso   1.000  H
  H33      1.0000 0.40580  0.46840  0.08840  Biso   1.000  H
  N14      1.0000 0.59960  0.49120  0.15340  Biso   1.000  N
  C24      1.0000 0.42950  0.61748  0.47540  Biso   1.000  C
  C25      1.0000 0.95540  0.63250  0.55280  Biso   1.000  C
  C26      1.0000 0.97850  0.67776  0.15470  Biso   1.000  C
  C27      1.0000 0.95790  0.71492  0.07780  Biso   1.000  C
  C28      1.0000 0.89050  0.71496  0.93980  Biso   1.000  C
  C29      1.0000 0.86750  0.67782  0.86170  Biso   1.000  C
  C30      1.0000 0.09670  0.56999  0.15740  Biso   1.000  C
  C31      1.0000 0.03940  0.53481  0.07210  Biso   1.000  C
  C32      1.0000 0.11000  0.50008  0.11770  Biso   1.000  C
  H34      1.0000 0.18550  0.50010  0.19930  Biso   1.000  H
  C33      1.0000 0.07360  0.46543  0.04770  Biso   1.000  C
  C34      1.0000 0.15840  0.43005  0.10750  Biso   1.000  C
  C35      1.0000 0.56880  0.64330  0.00710  Biso   1.000  C
  H35      1.0000 0.63260  0.65040  0.96420  Biso   1.000  H
  C36      1.0000 0.34320  0.65190  0.02850  Biso   1.000  C
  H36      1.0000 0.34980  0.62440  0.05300  Biso   1.000  H
  H37      1.0000 0.25080  0.65720  0.96390  Biso   1.000  H
  H38      1.0000 0.35800  0.66780  0.10770  Biso   1.000  H
  C37      1.0000 0.41650  0.69250  0.87220  Biso   1.000  C
  H39      1.0000 0.39510  0.71630  0.91150  Biso   1.000  H
  H40      1.0000 0.33620  0.68520  0.79490  Biso   1.000  H
  H41      1.0000 0.49720  0.69700  0.84460  Biso   1.000  H
  N15      1.0000 0.30140  0.61731  0.48160  Biso   1.000  N
  N16      1.0000 0.32060  0.61653  0.61340  Biso   1.000  N
  N17      1.0000 0.45210  0.61611  0.68090  Biso   1.000  N
  N18      1.0000 0.52550  0.61689  0.59590  Biso   1.000  N
  N19      1.0000 0.45400  0.62172  0.35980  Biso   1.000  N
  H42      1.0000 0.37890  0.61290  0.29210  Biso   1.000  H
  H43      1.0000 0.53010  0.60740  0.36410  Biso   1.000  H
  N20      1.0000 0.96970  0.62419  0.43520  Biso   1.000  N
  N21      1.0000 0.84380  0.61135  0.35680  Biso   1.000  N
  N22      1.0000 0.75740  0.61134  0.42100  Biso   1.000  N
  N23      1.0000 0.82370  0.62455  0.54570  Biso   1.000  N
  N24      1.0000 0.05630  0.64633  0.65930  Biso   1.000  N
  H44      1.0000 0.13380  0.63150  0.67480  Biso   1.000  H
  H45      1.0000 0.02760  0.64520  0.73060  Biso   1.000  H
  N25      1.0000 0.44810  0.66103  0.97070  Biso   1.000  N
  O14      1.0000 0.87650  0.65594  0.13300  Biso   1.000  O
  O15      1.0000 0.09840  0.67244  0.24240  Biso   1.000  O
  O16      1.0000 0.96830  0.65520  0.87980  Biso   1.000  O
  O17      1.0000 0.74590  0.67227  0.77660  Biso   1.000  O
  O18      1.0000 0.02360  0.58396  0.22280  Biso   1.000  O
  O19      1.0000 0.21440  0.58145  0.16890  Biso   1.000  O
  O20      1.0000 0.18810  0.42641  0.23120  Biso   1.000  O
  O21      1.0000 0.19930  0.40712  0.03930  Biso   1.000  O
  O22      1.0000 0.60530  0.61776  0.09440  Biso   1.000  O
  Zn4      1.0000 0.11793  0.62613  0.35102  Biso   1.000  Zn
  Zn5      1.0000 0.80572  0.59794  0.15116  Biso   1.000  Zn
  Zn6      1.0000 0.73135  0.62279  0.68518  Biso   1.000  Zn
  O23      1.0000 0.05100  0.49830  0.49400  Biso   1.000  O
  C38      1.0000 0.84440  0.52080  0.24980  Biso   1.000  C
  H46      1.0000 0.92200  0.53250  0.31510  Biso   1.000  H
  C39      1.0000 0.70290  0.46020  0.14810  Biso   1.000  C
  H47      1.0000 0.63110  0.47960  0.10710  Biso   1.000  H
  H48      1.0000 0.66590  0.44070  0.19380  Biso   1.000  H
  H49      1.0000 0.73090  0.44750  0.07940  Biso   1.000  H
  C40      1.0000 0.92500  0.45390  0.34010  Biso   1.000  C
  H50      1.0000 0.94360  0.43110  0.29430  Biso   1.000  H
  H51      1.0000 0.88700  0.44560  0.40810  Biso   1.000  H
  H52      1.0000 0.01180  0.46820  0.38200  Biso   1.000  H
  N26      1.0000 0.82380  0.47920  0.24370  Biso   1.000  N
  O24      1.0000 0.98500  0.47180  0.42400  Biso   1.000  O
  O25      1.0000 0.75290  0.95896  0.16310  Biso   1.000  O
  C41      1.0000 0.64130  0.96880  0.18270  Biso   1.000  C
  H53      1.0000 0.58890  0.95110  0.21440  Biso   1.000  H
  C42      1.0000 0.67230  0.03740  0.10020  Biso   1.000  C
  H54      1.0000 0.75330  0.02520  0.08730  Biso   1.000  H
  H55      1.0000 0.60930  0.04710  0.01510  Biso   1.000  H
  H56      1.0000 0.70320  0.05900  0.16260  Biso   1.000  H
  C43      1.0000 0.47040  0.02160  0.17230  Biso   1.000  C
  H57      1.0000 0.42770  0.99960  0.20160  Biso   1.000  H
  H58      1.0000 0.49170  0.04210  0.23960  Biso   1.000  H
  H59      1.0000 0.40580  0.03160  0.08840  Biso   1.000  H
  N27      1.0000 0.59960  0.00880  0.15340  Biso   1.000  N
  C44      1.0000 0.42950  0.88252  0.47540  Biso   1.000  C
  C45      1.0000 0.95540  0.86750  0.55280  Biso   1.000  C
  C46      1.0000 0.97850  0.82224  0.15470  Biso   1.000  C
  C47      1.0000 0.95790  0.78508  0.07780  Biso   1.000  C
  C48      1.0000 0.89050  0.78504  0.93980  Biso   1.000  C
  C49      1.0000 0.86750  0.82218  0.86170  Biso   1.000  C
  C50      1.0000 0.09670  0.93001  0.15740  Biso   1.000  C
  C51      1.0000 0.03940  0.96519  0.07210  Biso   1.000  C
  C52      1.0000 0.11000  0.99992  0.11770  Biso   1.000  C
  H60      1.0000 0.18550  0.99990  0.19930  Biso   1.000  H
  C53      1.0000 0.07360  0.03457  0.04770  Biso   1.000  C
  C54      1.0000 0.15840  0.06995  0.10750  Biso   1.000  C
  C55      1.0000 0.56880  0.85670  0.00710  Biso   1.000  C
  H61      1.0000 0.63260  0.84960  0.96420  Biso   1.000  H
  C56      1.0000 0.34320  0.84810  0.02850  Biso   1.000  C
  H62      1.0000 0.34980  0.87560  0.05300  Biso   1.000  H
  H63      1.0000 0.25080  0.84280  0.96390  Biso   1.000  H
  H64      1.0000 0.35800  0.83220  0.10770  Biso   1.000  H
  C57      1.0000 0.41650  0.80750  0.87220  Biso   1.000  C
  H65      1.0000 0.39510  0.78370  0.91150  Biso   1.000  H
  H66      1.0000 0.33620  0.81480  0.79490  Biso   1.000  H
  H67      1.0000 0.49720  0.80300  0.84460  Biso   1.000  H
  N28      1.0000 0.30140  0.88269  0.48160  Biso   1.000  N
  N29      1.0000 0.32060  0.88347  0.61340  Biso   1.000  N
  N30      1.0000 0.45210  0.88389  0.68090  Biso   1.000  N
  N31      1.0000 0.52550  0.88311  0.59590  Biso   1.000  N
  N32      1.0000 0.45400  0.87828  0.35980  Biso   1.000  N
  H68      1.0000 0.37890  0.88710  0.29210  Biso   1.000  H
  H69      1.0000 0.53010  0.89260  0.36410  Biso   1.000  H
  N33      1.0000 0.96970  0.87581  0.43520  Biso   1.000  N
  N34      1.0000 0.84380  0.88865  0.35680  Biso   1.000  N
  N35      1.0000 0.75740  0.88866  0.42100  Biso   1.000  N
  N36      1.0000 0.82370  0.87545  0.54570  Biso   1.000  N
  N37      1.0000 0.05630  0.85367  0.65930  Biso   1.000  N
  H70      1.0000 0.13380  0.86850  0.67480  Biso   1.000  H
  H71      1.0000 0.02760  0.85480  0.73060  Biso   1.000  H
  N38      1.0000 0.44810  0.83897  0.97070  Biso   1.000  N
  O26      1.0000 0.87650  0.84406  0.13300  Biso   1.000  O
  O27      1.0000 0.09840  0.82756  0.24240  Biso   1.000  O
  O28      1.0000 0.96830  0.84480  0.87980  Biso   1.000  O
  O29      1.0000 0.74590  0.82773  0.77660  Biso   1.000  O
  O30      1.0000 0.02360  0.91604  0.22280  Biso   1.000  O
  O31      1.0000 0.21440  0.91855  0.16890  Biso   1.000  O
  O32      1.0000 0.18810  0.07359  0.23120  Biso   1.000  O
  O33      1.0000 0.19930  0.09288  0.03930  Biso   1.000  O
  O34      1.0000 0.60530  0.88224  0.09440  Biso   1.000  O
  Zn7      1.0000 0.11793  0.87387  0.35102  Biso   1.000  Zn
  Zn8      1.0000 0.80572  0.90206  0.15116  Biso   1.000  Zn
  Zn9      1.0000 0.73135  0.87721  0.68518  Biso   1.000  Zn
  O35      1.0000 0.05100  0.00170  0.49400  Biso   1.000  O
  C58      1.0000 0.84440  0.97920  0.24980  Biso   1.000  C
  H72      1.0000 0.92200  0.96750  0.31510  Biso   1.000  H
  C59      1.0000 0.70290  0.03980  0.14810  Biso   1.000  C
  H73      1.0000 0.63110  0.02040  0.10710  Biso   1.000  H
  H74      1.0000 0.66590  0.05930  0.19380  Biso   1.000  H
  H75      1.0000 0.73090  0.05250  0.07940  Biso   1.000  H
  C60      1.0000 0.92500  0.04610  0.34010  Biso   1.000  C
  H76      1.0000 0.94360  0.06890  0.29430  Biso   1.000  H
  H77      1.0000 0.88700  0.05440  0.40810  Biso   1.000  H
  H78      1.0000 0.01180  0.03180  0.38200  Biso   1.000  H
  N39      1.0000 0.82380  0.02080  0.24370  Biso   1.000  N
  O36      1.0000 0.98500  0.02820  0.42400  Biso   1.000  O
  O37      1.0000 0.24710  0.45896  0.83690  Biso   1.000  O
  C61      1.0000 0.35870  0.46880  0.81730  Biso   1.000  C
  H79      1.0000 0.41110  0.45110  0.78560  Biso   1.000  H
  C62      1.0000 0.32770  0.53740  0.89980  Biso   1.000  C
  H80      1.0000 0.24670  0.52520  0.91270  Biso   1.000  H
  H81      1.0000 0.39070  0.54710  0.98490  Biso   1.000  H
  H82      1.0000 0.29680  0.55900  0.83740  Biso   1.000  H
  C63      1.0000 0.52960  0.52160  0.82770  Biso   1.000  C
  H83      1.0000 0.57230  0.49960  0.79840  Biso   1.000  H
  H84      1.0000 0.50830  0.54210  0.76040  Biso   1.000  H
  H85      1.0000 0.59420  0.53160  0.91160  Biso   1.000  H
  N40      1.0000 0.40040  0.50880  0.84660  Biso   1.000  N
  C64      1.0000 0.57050  0.38252  0.52460  Biso   1.000  C
  C65      1.0000 0.04460  0.36750  0.44720  Biso   1.000  C
  C66      1.0000 0.02150  0.32224  0.84530  Biso   1.000  C
  C67      1.0000 0.04210  0.28508  0.92220  Biso   1.000  C
  C68      1.0000 0.10950  0.28504  0.06020  Biso   1.000  C
  C69      1.0000 0.13250  0.32218  0.13830  Biso   1.000  C
  C70      1.0000 0.90330  0.43001  0.84260  Biso   1.000  C
  C71      1.0000 0.96060  0.46519  0.92790  Biso   1.000  C
  C72      1.0000 0.89000  0.49992  0.88230  Biso   1.000  C
  H86      1.0000 0.81450  0.49990  0.80070  Biso   1.000  H
  C73      1.0000 0.92640  0.53457  0.95230  Biso   1.000  C
  C74      1.0000 0.84160  0.56995  0.89250  Biso   1.000  C
  C75      1.0000 0.43120  0.35670  0.99290  Biso   1.000  C
  H87      1.0000 0.36740  0.34960  0.03580  Biso   1.000  H
  C76      1.0000 0.65680  0.34810  0.97150  Biso   1.000  C
  H88      1.0000 0.65020  0.37560  0.94700  Biso   1.000  H
  H89      1.0000 0.74920  0.34280  0.03610  Biso   1.000  H
  H90      1.0000 0.64200  0.33220  0.89230  Biso   1.000  H
  C77      1.0000 0.58350  0.30750  0.12780  Biso   1.000  C
  H91      1.0000 0.60490  0.28370  0.08850  Biso   1.000  H
  H92      1.0000 0.66380  0.31480  0.20510  Biso   1.000  H
  H93      1.0000 0.50280  0.30300  0.15540  Biso   1.000  H
  N41      1.0000 0.69860  0.38269  0.51840  Biso   1.000  N
  N42      1.0000 0.67940  0.38347  0.38660  Biso   1.000  N
  N43      1.0000 0.54790  0.38389  0.31910  Biso   1.000  N
  N44      1.0000 0.47450  0.38311  0.40410  Biso   1.000  N
  N45      1.0000 0.54600  0.37828  0.64020  Biso   1.000  N
  H94      1.0000 0.62110  0.38710  0.70790  Biso   1.000  H
  H95      1.0000 0.46990  0.39260  0.63590  Biso   1.000  H
  N46      1.0000 0.03030  0.37581  0.56480  Biso   1.000  N
  N47      1.0000 0.15620  0.38865  0.64320  Biso   1.000  N
  N48      1.0000 0.24260  0.38866  0.57900  Biso   1.000  N
  N49      1.0000 0.17630  0.37545  0.45430  Biso   1.000  N
  N50      1.0000 0.94370  0.35367  0.34070  Biso   1.000  N
  H96      1.0000 0.86620  0.36850  0.32520  Biso   1.000  H
  H97      1.0000 0.97240  0.35480  0.26940  Biso   1.000  H
  N51      1.0000 0.55190  0.33897  0.02930  Biso   1.000  N
  O38      1.0000 0.12350  0.34406  0.86700  Biso   1.000  O
  O39      1.0000 0.90160  0.32756  0.75760  Biso   1.000  O
  O40      1.0000 0.03170  0.34480  0.12020  Biso   1.000  O
  O41      1.0000 0.25410  0.32773  0.22340  Biso   1.000  O
  O42      1.0000 0.97640  0.41604  0.77720  Biso   1.000  O
  O43      1.0000 0.78560  0.41855  0.83110  Biso   1.000  O
  O44      1.0000 0.81190  0.57359  0.76880  Biso   1.000  O
  O45      1.0000 0.80070  0.59288  0.96070  Biso   1.000  O
  O46      1.0000 0.39470  0.38224  0.90560  Biso   1.000  O
  Zn10     1.0000 0.88207  0.37387  0.64898  Biso   1.000  Zn
  Zn11     1.0000 0.19428  0.40206  0.84884  Biso   1.000  Zn
  Zn12     1.0000 0.26865  0.37721  0.31482  Biso   1.000  Zn
  O47      1.0000 0.94900  0.50170  0.50600  Biso   1.000  O
  C78      1.0000 0.15560  0.47920  0.75020  Biso   1.000  C
  H98      1.0000 0.07800  0.46750  0.68490  Biso   1.000  H
  C79      1.0000 0.29710  0.53980  0.85190  Biso   1.000  C
  H99      1.0000 0.36890  0.52040  0.89290  Biso   1.000  H
  H100     1.0000 0.33410  0.55930  0.80620  Biso   1.000  H
  H101     1.0000 0.26910  0.55250  0.92060  Biso   1.000  H
  C80      1.0000 0.07500  0.54610  0.65990  Biso   1.000  C
  H102     1.0000 0.05640  0.56890  0.70570  Biso   1.000  H
  H103     1.0000 0.11300  0.55440  0.59190  Biso   1.000  H
  H104     1.0000 0.98820  0.53180  0.61800  Biso   1.000  H
  N52      1.0000 0.17620  0.52080  0.75630  Biso   1.000  N
  O48      1.0000 0.01500  0.52820  0.57600  Biso   1.000  O
  C81      1.0000 0.00710  0.25000  0.85490  Biso   1.000  C
  H105     1.0000 0.95880  0.25000  0.76200  Biso   1.000  H
  C82      1.0000 0.14330  0.25000  0.12820  Biso   1.000  C
  H106     1.0000 0.18980  0.25000  0.22150  Biso   1.000  H
  C83      1.0000 0.99290  0.75000  0.14510  Biso   1.000  C
  H107     1.0000 0.04120  0.75000  0.23800  Biso   1.000  H
  C84      1.0000 0.85670  0.75000  0.87180  Biso   1.000  C
  H108     1.0000 0.81020  0.75000  0.77850  Biso   1.000  H
