data_image0
_cell_length_a       5.9466
_cell_length_b       10.2247
_cell_length_c       16.6496
_cell_angle_alpha    72.213
_cell_angle_beta     79.718
_cell_angle_gamma    89.791

_symmetry_space_group_name_H-M    P 1
_symmetry_int_tables_number       1

loop_
  _symmetry_equiv_pos_as_xyz
  'x, y, z'

loop_
  _atom_site_label
  _atom_site_occupancy
  _atom_site_fract_x
  _atom_site_fract_y
  _atom_site_fract_z
  _atom_site_thermal_displace_type
  _atom_site_B_iso_or_equiv
  _atom_site_type_symbol
  Ca1      1.0000 0.75595  0.87952  0.99633  Biso   1.000  Ca
  Ca2      1.0000 0.05062  0.18055  0.39568  Biso   1.000  Ca
  Ca3      1.0000 0.45185  0.57902  0.60335  Biso   1.000  Ca
  Ca4      1.0000 0.24405  0.12048  0.00367  Biso   1.000  Ca
  Ca5      1.0000 0.94938  0.81945  0.60432  Biso   1.000  Ca
  Ca6      1.0000 0.54815  0.42098  0.39665  Biso   1.000  Ca
  H1       1.0000 0.46700  0.65700  0.97400  Biso   1.000  H
  H2       1.0000 0.49100  0.62000  0.05900  Biso   1.000  H
  H3       1.0000 0.15800  0.73900  0.98300  Biso   1.000  H
  H4       1.0000 0.08700  0.69800  0.92200  Biso   1.000  H
  H5       1.0000 0.29600  0.35250  0.74280  Biso   1.000  H
  H6       1.0000 0.15810  0.01870  0.35960  Biso   1.000  H
  H7       1.0000 0.75790  0.24920  0.79220  Biso   1.000  H
  H8       1.0000 0.91670  0.13760  0.76580  Biso   1.000  H
  H9       1.0000 0.01930  0.19030  0.63410  Biso   1.000  H
  H10      1.0000 0.84430  0.30800  0.60930  Biso   1.000  H
  H11      1.0000 0.48760  0.82030  0.37060  Biso   1.000  H
  H12      1.0000 0.65910  0.91640  0.39410  Biso   1.000  H
  H13      1.0000 0.74190  0.02900  0.20930  Biso   1.000  H
  H14      1.0000 0.58510  0.89020  0.24050  Biso   1.000  H
  H15      1.0000 0.53300  0.34300  0.02600  Biso   1.000  H
  H16      1.0000 0.50900  0.38000  0.94100  Biso   1.000  H
  H17      1.0000 0.84200  0.26100  0.01700  Biso   1.000  H
  H18      1.0000 0.91300  0.30200  0.07800  Biso   1.000  H
  H19      1.0000 0.70400  0.64750  0.25720  Biso   1.000  H
  H20      1.0000 0.84190  0.98130  0.64040  Biso   1.000  H
  H21      1.0000 0.24210  0.75080  0.20780  Biso   1.000  H
  H22      1.0000 0.08330  0.86240  0.23420  Biso   1.000  H
  H23      1.0000 0.98070  0.80970  0.36590  Biso   1.000  H
  H24      1.0000 0.15570  0.69200  0.39070  Biso   1.000  H
  H25      1.0000 0.51240  0.17970  0.62940  Biso   1.000  H
  H26      1.0000 0.34090  0.08360  0.60590  Biso   1.000  H
  H27      1.0000 0.25810  0.97100  0.79070  Biso   1.000  H
  H28      1.0000 0.41490  0.10980  0.75950  Biso   1.000  H
  C1       1.0000 0.02080  0.20280  0.85850  Biso   1.000  C
  C2       1.0000 0.91910  0.22600  0.77860  Biso   1.000  C
  C3       1.0000 0.03540  0.33740  0.69580  Biso   1.000  C
  C4       1.0000 0.00320  0.29090  0.61850  Biso   1.000  C
  C5       1.0000 0.16310  0.35760  0.53430  Biso   1.000  C
  C6       1.0000 0.92290  0.47570  0.68750  Biso   1.000  C
  C7       1.0000 0.33840  0.89400  0.46740  Biso   1.000  C
  C8       1.0000 0.50110  0.90700  0.38460  Biso   1.000  C
  C9       1.0000 0.46730  0.02740  0.30610  Biso   1.000  C
  C10      1.0000 0.58120  0.99160  0.22500  Biso   1.000  C
  C11      1.0000 0.47250  0.04220  0.14550  Biso   1.000  C
  C12      1.0000 0.57930  0.15960  0.31080  Biso   1.000  C
  C13      1.0000 0.97920  0.79720  0.14150  Biso   1.000  C
  C14      1.0000 0.08090  0.77400  0.22140  Biso   1.000  C
  C15      1.0000 0.96460  0.66260  0.30420  Biso   1.000  C
  C16      1.0000 0.99680  0.70910  0.38150  Biso   1.000  C
  C17      1.0000 0.83690  0.64240  0.46570  Biso   1.000  C
  C18      1.0000 0.07710  0.52430  0.31250  Biso   1.000  C
  C19      1.0000 0.66160  0.10600  0.53260  Biso   1.000  C
  C20      1.0000 0.49890  0.09300  0.61540  Biso   1.000  C
  C21      1.0000 0.53270  0.97260  0.69390  Biso   1.000  C
  C22      1.0000 0.41880  0.00840  0.77500  Biso   1.000  C
  C23      1.0000 0.52750  0.95780  0.85450  Biso   1.000  C
  C24      1.0000 0.42070  0.84040  0.68920  Biso   1.000  C
  O1       1.0000 0.17580  0.28350  0.86130  Biso   1.000  O
  O2       1.0000 0.49800  0.68570  0.01360  Biso   1.000  O
  O3       1.0000 0.94980  0.09760  0.92010  Biso   1.000  O
  O4       1.0000 0.06150  0.75160  0.95120  Biso   1.000  O
  O5       1.0000 0.18800  0.29360  0.48040  Biso   1.000  O
  O6       1.0000 0.26690  0.47130  0.52050  Biso   1.000  O
  O7       1.0000 0.04900  0.58160  0.67370  Biso   1.000  O
  O8       1.0000 0.71070  0.47130  0.69360  Biso   1.000  O
  O9       1.0000 0.27490  0.35320  0.69410  Biso   1.000  O
  O10      1.0000 0.23470  0.99260  0.48130  Biso   1.000  O
  O11      1.0000 0.31060  0.77610  0.52180  Biso   1.000  O
  O12      1.0000 0.54810  0.00160  0.08300  Biso   1.000  O
  O13      1.0000 0.31060  0.12020  0.14490  Biso   1.000  O
  O14      1.0000 0.45410  0.25420  0.32220  Biso   1.000  O
  O15      1.0000 0.79210  0.16440  0.30340  Biso   1.000  O
  O16      1.0000 0.22710  0.04100  0.30830  Biso   1.000  O
  O17      1.0000 0.82420  0.71650  0.13870  Biso   1.000  O
  O18      1.0000 0.50200  0.31430  0.98640  Biso   1.000  O
  O19      1.0000 0.05020  0.90240  0.07990  Biso   1.000  O
  O20      1.0000 0.93850  0.24840  0.04880  Biso   1.000  O
  O21      1.0000 0.81200  0.70640  0.51960  Biso   1.000  O
  O22      1.0000 0.73310  0.52870  0.47950  Biso   1.000  O
  O23      1.0000 0.95100  0.41840  0.32630  Biso   1.000  O
  O24      1.0000 0.28930  0.52870  0.30640  Biso   1.000  O
  O25      1.0000 0.72510  0.64680  0.30590  Biso   1.000  O
  O26      1.0000 0.76530  0.00740  0.51870  Biso   1.000  O
  O27      1.0000 0.68940  0.22390  0.47820  Biso   1.000  O
  O28      1.0000 0.45190  0.99840  0.91700  Biso   1.000  O
  O29      1.0000 0.68940  0.87980  0.85510  Biso   1.000  O
  O30      1.0000 0.54590  0.74580  0.67780  Biso   1.000  O
  O31      1.0000 0.20790  0.83560  0.69660  Biso   1.000  O
  O32      1.0000 0.77290  0.95900  0.69170  Biso   1.000  O
