data_ja206029a_si_003_freeONLY
_audit_creation_date              2015-08-19
_audit_creation_method            'Materials Studio'
_symmetry_space_group_name_H-M    'P1'
_symmetry_Int_Tables_number       1
_symmetry_cell_setting            triclinic
loop_
_symmetry_equiv_pos_as_xyz
  x,y,z
_cell_length_a                    16.6179
_cell_length_b                    16.6179
_cell_length_c                    22.2660
_cell_angle_alpha                 90.0000
_cell_angle_beta                  90.0000
_cell_angle_gamma                 90.0000
loop_
_atom_site_label
_atom_site_type_symbol
_atom_site_fract_x
_atom_site_fract_y
_atom_site_fract_z
_atom_site_U_iso_or_equiv
_atom_site_adp_type
_atom_site_occupancy
Zn1    Zn    0.00000   0.00000   0.43436   0.01267  Uiso   1.00
Zn2    Zn    0.00000   0.00000   0.56564   0.01267  Uiso   1.00
Zn3    Zn    0.50000   0.50000   0.50000   0.01267  Uiso   1.00
B1     B     0.09500   0.97900   0.00000   0.01267  Uiso   1.00
B2     B     0.02100   0.90500   0.00000   0.01267  Uiso   1.00
B3     B     0.97900   0.09500   0.00000   0.01267  Uiso   1.00
B4     B     0.90500   0.02100   0.00000   0.01267  Uiso   1.00
B5     B     0.90500   0.97900   0.00000   0.01267  Uiso   1.00
B6     B     0.09500   0.02100   0.00000   0.01267  Uiso   1.00
B7     B     0.02100   0.09500   0.00000   0.01267  Uiso   1.00
B8     B     0.97900   0.90500   0.00000   0.01267  Uiso   1.00
H1     H     0.94610   0.89350   0.66710   0.01267  Uiso   1.00
H2     H     0.73350   0.26960   0.00000   0.01267  Uiso   1.00
H3     H     0.28200   0.28200   0.41250   0.01267  Uiso   1.00
H4     H     0.17680   0.01530   0.84410   0.01267  Uiso   1.00
H5     H     0.18370   0.62070   0.00000   0.01267  Uiso   1.00
H6     H     0.04160   0.82410   0.14480   0.01267  Uiso   1.00
H7     H     0.28200   0.71800   0.41250   0.01267  Uiso   1.00
H8     H     0.04160   0.17590   0.14480   0.01267  Uiso   1.00
H9     H     0.86720   0.10090   0.15930   0.01267  Uiso   1.00
H10    H     0.88650   0.04320   0.23230   0.01267  Uiso   1.00
H11    H     0.89910   0.86720   0.15930   0.01267  Uiso   1.00
H12    H     0.62070   0.18370   0.00000   0.01267  Uiso   1.00
H13    H     0.92860   0.17250   0.09760   0.01267  Uiso   1.00
H14    H     0.05390   0.89350   0.66710   0.01267  Uiso   1.00
H15    H     0.11350   0.04320   0.76770   0.01267  Uiso   1.00
H16    H     0.14810   0.12740   0.11980   0.01267  Uiso   1.00
H17    H     0.82410   0.95840   0.14480   0.01267  Uiso   1.00
H18    H     0.89970   0.12350   0.18630   0.01267  Uiso   1.00
H19    H     0.71800   0.28200   0.41250   0.01267  Uiso   1.00
H20    H     0.05390   0.89350   0.33290   0.01267  Uiso   1.00
H21    H     0.10090   0.13280   0.15930   0.01267  Uiso   1.00
H22    H     0.98850   0.23040   0.00000   0.01267  Uiso   1.00
H23    H     0.86500   0.78490   0.00000   0.01267  Uiso   1.00
H24    H     0.10650   0.94610   0.33290   0.01267  Uiso   1.00
H25    H     0.01150   0.23040   0.00000   0.01267  Uiso   1.00
H26    H     0.13280   0.10090   0.15930   0.01267  Uiso   1.00
H27    H     0.87650   0.89970   0.18630   0.01267  Uiso   1.00
H28    H     0.86720   0.89910   0.15930   0.01267  Uiso   1.00
H29    H     0.12350   0.10030   0.81370   0.01267  Uiso   1.00
H30    H     0.12350   0.89970   0.18630   0.01267  Uiso   1.00
H31    H     0.13280   0.10090   0.84070   0.01267  Uiso   1.00
H32    H     0.98850   0.76960   0.00000   0.01267  Uiso   1.00
H33    H     0.92860   0.17250   0.90240   0.01267  Uiso   1.00
H34    H     0.71800   0.71800   0.41250   0.01267  Uiso   1.00
H35    H     0.89350   0.94610   0.33290   0.01267  Uiso   1.00
H36    H     0.87260   0.85190   0.88020   0.01267  Uiso   1.00
H37    H     0.07140   0.82750   0.09760   0.01267  Uiso   1.00
H38    H     0.87260   0.85190   0.11980   0.01267  Uiso   1.00
H39    H     0.86720   0.10090   0.84070   0.01267  Uiso   1.00
H40    H     0.63870   0.04310   0.00000   0.01267  Uiso   1.00
H41    H     0.12350   0.10030   0.18630   0.01267  Uiso   1.00
H42    H     0.17250   0.92860   0.90240   0.01267  Uiso   1.00
H43    H     0.82750   0.92860   0.09760   0.01267  Uiso   1.00
H44    H     0.01530   0.17680   0.84410   0.01267  Uiso   1.00
H45    H     0.81630   0.37930   0.00000   0.01267  Uiso   1.00
H46    H     0.17590   0.04160   0.14480   0.01267  Uiso   1.00
H47    H     0.95840   0.17590   0.85520   0.01267  Uiso   1.00
H48    H     0.28200   0.28200   0.58750   0.01267  Uiso   1.00
H49    H     0.17680   0.98470   0.15590   0.01267  Uiso   1.00
H50    H     0.98470   0.82320   0.84410   0.01267  Uiso   1.00
H51    H     0.14810   0.87260   0.88020   0.01267  Uiso   1.00
H52    H     0.13500   0.78490   0.00000   0.01267  Uiso   1.00
H53    H     0.82750   0.92860   0.90240   0.01267  Uiso   1.00
H54    H     0.26960   0.26650   0.00000   0.01267  Uiso   1.00
H55    H     0.94610   0.89350   0.33290   0.01267  Uiso   1.00
H56    H     0.85190   0.12740   0.11980   0.01267  Uiso   1.00
H57    H     0.87260   0.14810   0.11980   0.01267  Uiso   1.00
H58    H     0.88650   0.04320   0.76770   0.01267  Uiso   1.00
H59    H     0.89910   0.13280   0.15930   0.01267  Uiso   1.00
H60    H     0.82320   0.98470   0.15590   0.01267  Uiso   1.00
H61    H     0.07140   0.82750   0.90240   0.01267  Uiso   1.00
H62    H     0.80090   0.42480   0.50000   0.01267  Uiso   1.00
H63    H     0.04320   0.88650   0.23230   0.01267  Uiso   1.00
H64    H     0.82320   0.98470   0.84410   0.01267  Uiso   1.00
H65    H     0.98470   0.17680   0.15590   0.01267  Uiso   1.00
H66    H     0.21510   0.86500   0.00000   0.01267  Uiso   1.00
H67    H     0.87650   0.10030   0.81370   0.01267  Uiso   1.00
H68    H     0.04320   0.11350   0.23230   0.01267  Uiso   1.00
H69    H     0.81630   0.62070   0.00000   0.01267  Uiso   1.00
H70    H     0.86500   0.21510   0.00000   0.01267  Uiso   1.00
H71    H     0.81930   0.18070   0.59030   0.01267  Uiso   1.00
H72    H     0.94610   0.10650   0.33290   0.01267  Uiso   1.00
H73    H     0.71800   0.71800   0.58750   0.01267  Uiso   1.00
H74    H     0.88650   0.95680   0.23230   0.01267  Uiso   1.00
H75    H     0.10650   0.94610   0.66710   0.01267  Uiso   1.00
H76    H     0.23040   0.98850   0.00000   0.01267  Uiso   1.00
H77    H     0.73040   0.26650   0.00000   0.01267  Uiso   1.00
H78    H     0.04320   0.11350   0.76770   0.01267  Uiso   1.00
H79    H     0.92860   0.82750   0.90240   0.01267  Uiso   1.00
H80    H     0.95680   0.11350   0.76770   0.01267  Uiso   1.00
H81    H     0.01150   0.76960   0.00000   0.01267  Uiso   1.00
H82    H     0.81930   0.81930   0.59030   0.01267  Uiso   1.00
H83    H     0.13280   0.89910   0.15930   0.01267  Uiso   1.00
H84    H     0.95840   0.17590   0.14480   0.01267  Uiso   1.00
H85    H     0.19910   0.42480   0.50000   0.01267  Uiso   1.00
H86    H     0.85190   0.87260   0.11980   0.01267  Uiso   1.00
H87    H     0.12740   0.14810   0.88020   0.01267  Uiso   1.00
H88    H     0.10030   0.12350   0.81370   0.01267  Uiso   1.00
H89    H     0.95680   0.88650   0.23230   0.01267  Uiso   1.00
H90    H     0.17250   0.07140   0.90240   0.01267  Uiso   1.00
H91    H     0.42480   0.80090   0.50000   0.01267  Uiso   1.00
H92    H     0.85190   0.87260   0.88020   0.01267  Uiso   1.00
H93    H     0.81930   0.81930   0.40970   0.01267  Uiso   1.00
H94    H     0.17590   0.95840   0.85520   0.01267  Uiso   1.00
H95    H     0.01530   0.82320   0.15590   0.01267  Uiso   1.00
H96    H     0.81930   0.18070   0.40970   0.01267  Uiso   1.00
H97    H     0.12350   0.89970   0.81370   0.01267  Uiso   1.00
H98    H     0.76960   0.98850   0.00000   0.01267  Uiso   1.00
H99    H     0.87650   0.89970   0.81370   0.01267  Uiso   1.00
H100   H     0.04320   0.88650   0.76770   0.01267  Uiso   1.00
H101   H     0.82750   0.07140   0.09760   0.01267  Uiso   1.00
H102   H     0.89970   0.12350   0.81370   0.01267  Uiso   1.00
H103   H     0.95690   0.36130   0.00000   0.01267  Uiso   1.00
H104   H     0.17680   0.98470   0.84410   0.01267  Uiso   1.00
H105   H     0.17590   0.95840   0.14480   0.01267  Uiso   1.00
H106   H     0.14810   0.87260   0.11980   0.01267  Uiso   1.00
H107   H     0.05390   0.10650   0.33290   0.01267  Uiso   1.00
H108   H     0.04160   0.82410   0.85520   0.01267  Uiso   1.00
H109   H     0.88650   0.95680   0.76770   0.01267  Uiso   1.00
H110   H     0.62070   0.81630   0.00000   0.01267  Uiso   1.00
H111   H     0.17680   0.01530   0.15590   0.01267  Uiso   1.00
H112   H     0.05390   0.10650   0.66710   0.01267  Uiso   1.00
H113   H     0.10650   0.05390   0.66710   0.01267  Uiso   1.00
H114   H     0.10090   0.13280   0.84070   0.01267  Uiso   1.00
H115   H     0.10030   0.87650   0.18630   0.01267  Uiso   1.00
H116   H     0.42480   0.19910   0.50000   0.01267  Uiso   1.00
H117   H     0.80090   0.57520   0.50000   0.01267  Uiso   1.00
H118   H     0.82410   0.04160   0.14480   0.01267  Uiso   1.00
H119   H     0.78490   0.86500   0.00000   0.01267  Uiso   1.00
H120   H     0.13280   0.89910   0.84070   0.01267  Uiso   1.00
H121   H     0.26650   0.73040   0.00000   0.01267  Uiso   1.00
H122   H     0.17590   0.04160   0.85520   0.01267  Uiso   1.00
H123   H     0.18070   0.81930   0.40970   0.01267  Uiso   1.00
H124   H     0.10650   0.05390   0.33290   0.01267  Uiso   1.00
H125   H     0.26960   0.73350   0.00000   0.01267  Uiso   1.00
H126   H     0.89970   0.87650   0.18630   0.01267  Uiso   1.00
H127   H     0.01530   0.82320   0.84410   0.01267  Uiso   1.00
H128   H     0.89970   0.87650   0.81370   0.01267  Uiso   1.00
H129   H     0.76960   0.01150   0.00000   0.01267  Uiso   1.00
H130   H     0.73040   0.73350   0.00000   0.01267  Uiso   1.00
H131   H     0.10090   0.86720   0.15930   0.01267  Uiso   1.00
H132   H     0.57520   0.80090   0.50000   0.01267  Uiso   1.00
H133   H     0.73350   0.73040   0.00000   0.01267  Uiso   1.00
H134   H     0.89350   0.05390   0.33290   0.01267  Uiso   1.00
H135   H     0.95680   0.11350   0.23230   0.01267  Uiso   1.00
H136   H     0.82320   0.01530   0.15590   0.01267  Uiso   1.00
H137   H     0.19910   0.57520   0.50000   0.01267  Uiso   1.00
H138   H     0.12740   0.85190   0.88020   0.01267  Uiso   1.00
H139   H     0.12740   0.85190   0.11980   0.01267  Uiso   1.00
H140   H     0.07140   0.17250   0.90240   0.01267  Uiso   1.00
H141   H     0.85190   0.12740   0.88020   0.01267  Uiso   1.00
H142   H     0.10030   0.87650   0.81370   0.01267  Uiso   1.00
H143   H     0.11350   0.04320   0.23230   0.01267  Uiso   1.00
H144   H     0.89910   0.13280   0.84070   0.01267  Uiso   1.00
H145   H     0.78490   0.13500   0.00000   0.01267  Uiso   1.00
H146   H     0.95680   0.88650   0.76770   0.01267  Uiso   1.00
H147   H     0.26650   0.26960   0.00000   0.01267  Uiso   1.00
H148   H     0.95840   0.82410   0.85520   0.01267  Uiso   1.00
H149   H     0.07140   0.17250   0.09760   0.01267  Uiso   1.00
H150   H     0.11350   0.95680   0.23230   0.01267  Uiso   1.00
H151   H     0.21510   0.13500   0.00000   0.01267  Uiso   1.00
H152   H     0.63870   0.95690   0.00000   0.01267  Uiso   1.00
H153   H     0.14810   0.12740   0.88020   0.01267  Uiso   1.00
H154   H     0.17250   0.07140   0.09760   0.01267  Uiso   1.00
H155   H     0.82410   0.04160   0.85520   0.01267  Uiso   1.00
H156   H     0.87650   0.10030   0.18630   0.01267  Uiso   1.00
H157   H     0.37930   0.81630   0.00000   0.01267  Uiso   1.00
H158   H     0.18070   0.81930   0.59030   0.01267  Uiso   1.00
H159   H     0.87260   0.14810   0.88020   0.01267  Uiso   1.00
H160   H     0.36130   0.04310   0.00000   0.01267  Uiso   1.00
H161   H     0.23040   0.01150   0.00000   0.01267  Uiso   1.00
H162   H     0.98470   0.17680   0.84410   0.01267  Uiso   1.00
H163   H     0.18070   0.18070   0.40970   0.01267  Uiso   1.00
H164   H     0.28200   0.71800   0.58750   0.01267  Uiso   1.00
H165   H     0.57520   0.19910   0.50000   0.01267  Uiso   1.00
H166   H     0.98470   0.82320   0.15590   0.01267  Uiso   1.00
H167   H     0.95840   0.82410   0.14480   0.01267  Uiso   1.00
H168   H     0.94610   0.10650   0.66710   0.01267  Uiso   1.00
H169   H     0.11350   0.95680   0.76770   0.01267  Uiso   1.00
H170   H     0.17250   0.92860   0.09760   0.01267  Uiso   1.00
H171   H     0.92860   0.82750   0.09760   0.01267  Uiso   1.00
H172   H     0.01530   0.17680   0.15590   0.01267  Uiso   1.00
H173   H     0.95690   0.63870   0.00000   0.01267  Uiso   1.00
H174   H     0.86720   0.89910   0.84070   0.01267  Uiso   1.00
H175   H     0.04310   0.63870   0.00000   0.01267  Uiso   1.00
H176   H     0.89350   0.94610   0.66710   0.01267  Uiso   1.00
H177   H     0.18370   0.37930   0.00000   0.01267  Uiso   1.00
H178   H     0.18070   0.18070   0.59030   0.01267  Uiso   1.00
H179   H     0.04160   0.17590   0.85520   0.01267  Uiso   1.00
H180   H     0.12740   0.14810   0.11980   0.01267  Uiso   1.00
H181   H     0.71800   0.28200   0.58750   0.01267  Uiso   1.00
H182   H     0.89350   0.05390   0.66710   0.01267  Uiso   1.00
H183   H     0.82320   0.01530   0.84410   0.01267  Uiso   1.00
H184   H     0.36130   0.95690   0.00000   0.01267  Uiso   1.00
H185   H     0.37930   0.18370   0.00000   0.01267  Uiso   1.00
H186   H     0.89910   0.86720   0.84070   0.01267  Uiso   1.00
H187   H     0.82750   0.07140   0.90240   0.01267  Uiso   1.00
H188   H     0.13500   0.21510   0.00000   0.01267  Uiso   1.00
H189   H     0.10030   0.12350   0.18630   0.01267  Uiso   1.00
H190   H     0.10090   0.86720   0.84070   0.01267  Uiso   1.00
H191   H     0.82410   0.95840   0.85520   0.01267  Uiso   1.00
H192   H     0.04310   0.36130   0.00000   0.01267  Uiso   1.00
C1     C     0.75500   0.54110   0.50000   0.01267  Uiso   1.00
C2     C     0.00000   0.00000   0.84210   0.01267  Uiso   1.00
C3     C     0.82720   0.82720   0.50000   0.01267  Uiso   1.00
C4     C     0.07600   0.92400   0.00000   0.01267  Uiso   1.00
C5     C     0.06000   0.04600   0.12210   0.01267  Uiso   1.00
C6     C     0.90400   0.17000   0.00000   0.01267  Uiso   1.00
C7     C     0.00000   0.00000   0.15790   0.01267  Uiso   1.00
C8     C     0.83800   0.67300   0.00000   0.01267  Uiso   1.00
C9     C     0.13300   0.91800   0.85500   0.01267  Uiso   1.00
C10    C     0.96130   0.03870   0.05740   0.01267  Uiso   1.00
C11    C     0.06520   0.02650   0.74860   0.01267  Uiso   1.00
C12    C     0.03870   0.96130   0.94260   0.01267  Uiso   1.00
C13    C     0.71020   0.28980   0.50000   0.01267  Uiso   1.00
C14    C     0.21300   0.74100   0.00000   0.01267  Uiso   1.00
C15    C     0.16200   0.32700   0.00000   0.01267  Uiso   1.00
C16    C     0.79937   0.79937   0.55310   0.01267  Uiso   1.00
C17    C     0.92200   0.68400   0.00000   0.01267  Uiso   1.00
C18    C     0.32850   0.56640   0.50000   0.01267  Uiso   1.00
C19    C     0.02930   0.93810   0.68660   0.01267  Uiso   1.00
C20    C     0.82720   0.17280   0.50000   0.01267  Uiso   1.00
C21    C     0.06000   0.95400   0.87790   0.01267  Uiso   1.00
C22    C     0.01700   0.06930   0.88310   0.01267  Uiso   1.00
C23    C     0.86700   0.08200   0.14500   0.01267  Uiso   1.00
C24    C     0.20063   0.20063   0.55310   0.01267  Uiso   1.00
C25    C     0.05400   0.14370   0.86630   0.01267  Uiso   1.00
C26    C     0.95400   0.94000   0.87790   0.01267  Uiso   1.00
C27    C     0.97350   0.06520   0.74860   0.01267  Uiso   1.00
C28    C     0.17000   0.09600   0.00000   0.01267  Uiso   1.00
C29    C     0.68400   0.92200   0.00000   0.01267  Uiso   1.00
C30    C     0.06000   0.95400   0.12210   0.01267  Uiso   1.00
C31    C     0.26130   0.73870   0.55080   0.01267  Uiso   1.00
C32    C     0.67150   0.56640   0.50000   0.01267  Uiso   1.00
C33    C     0.81900   0.81900   0.00000   0.01267  Uiso   1.00
C34    C     0.79937   0.79937   0.44690   0.01267  Uiso   1.00
C35    C     0.74100   0.78700   0.00000   0.01267  Uiso   1.00
C36    C     0.83800   0.32700   0.00000   0.01267  Uiso   1.00
C37    C     0.86700   0.08200   0.85500   0.01267  Uiso   1.00
C38    C     0.93810   0.97070   0.31340   0.01267  Uiso   1.00
C39    C     0.02930   0.06190   0.68660   0.01267  Uiso   1.00
C40    C     0.94000   0.04600   0.87790   0.01267  Uiso   1.00
C41    C     0.85630   0.94600   0.13370   0.01267  Uiso   1.00
C42    C     0.31600   0.07800   0.00000   0.01267  Uiso   1.00
C43    C     0.93070   0.98300   0.88310   0.01267  Uiso   1.00
C44    C     0.01700   0.06930   0.11690   0.01267  Uiso   1.00
C45    C     0.26130   0.26130   0.44920   0.01267  Uiso   1.00
C46    C     0.08200   0.86700   0.85500   0.01267  Uiso   1.00
C47    C     0.73870   0.26130   0.44920   0.01267  Uiso   1.00
C48    C     0.92400   0.92400   0.00000   0.01267  Uiso   1.00
C49    C     0.93480   0.97350   0.74860   0.01267  Uiso   1.00
C50    C     0.16200   0.67300   0.00000   0.01267  Uiso   1.00
C51    C     0.06000   0.04600   0.87790   0.01267  Uiso   1.00
C52    C     0.18100   0.81900   0.00000   0.01267  Uiso   1.00
C53    C     0.25900   0.21300   0.00000   0.01267  Uiso   1.00
C54    C     0.24500   0.45890   0.50000   0.01267  Uiso   1.00
C55    C     0.67300   0.83800   0.00000   0.01267  Uiso   1.00
C56    C     0.86700   0.91800   0.14500   0.01267  Uiso   1.00
C57    C     0.89420   0.10580   0.50000   0.01267  Uiso   1.00
C58    C     0.31600   0.92200   0.00000   0.01267  Uiso   1.00
C59    C     0.17280   0.17280   0.50000   0.01267  Uiso   1.00
C60    C     0.95400   0.06000   0.87790   0.01267  Uiso   1.00
C61    C     0.05400   0.85630   0.13370   0.01267  Uiso   1.00
C62    C     0.02930   0.93810   0.31340   0.01267  Uiso   1.00
C63    C     0.98300   0.93070   0.11690   0.01267  Uiso   1.00
C64    C     0.06930   0.01700   0.88310   0.01267  Uiso   1.00
C65    C     0.94600   0.14370   0.13370   0.01267  Uiso   1.00
C66    C     0.35410   0.64590   0.50000   0.01267  Uiso   1.00
C67    C     0.06930   0.98300   0.88310   0.01267  Uiso   1.00
C68    C     0.91800   0.86700   0.14500   0.01267  Uiso   1.00
C69    C     0.56640   0.32850   0.50000   0.01267  Uiso   1.00
C70    C     0.98300   0.06930   0.11690   0.01267  Uiso   1.00
C71    C     0.04600   0.06000   0.87790   0.01267  Uiso   1.00
C72    C     0.91800   0.13300   0.14500   0.01267  Uiso   1.00
C73    C     0.96130   0.03870   0.94260   0.01267  Uiso   1.00
C74    C     0.45890   0.24500   0.50000   0.01267  Uiso   1.00
C75    C     0.96130   0.96130   0.94260   0.01267  Uiso   1.00
C76    C     0.23800   0.95500   0.00000   0.01267  Uiso   1.00
C77    C     0.02650   0.93480   0.74860   0.01267  Uiso   1.00
C78    C     0.93070   0.01700   0.11690   0.01267  Uiso   1.00
C79    C     0.43360   0.32850   0.50000   0.01267  Uiso   1.00
C80    C     0.98300   0.93070   0.88310   0.01267  Uiso   1.00
C81    C     0.64590   0.35410   0.50000   0.01267  Uiso   1.00
C82    C     0.32700   0.16200   0.00000   0.01267  Uiso   1.00
C83    C     0.97350   0.06520   0.25140   0.01267  Uiso   1.00
C84    C     0.20063   0.20063   0.44690   0.01267  Uiso   1.00
C85    C     0.32700   0.83800   0.00000   0.01267  Uiso   1.00
C86    C     0.73870   0.73870   0.44920   0.01267  Uiso   1.00
C87    C     0.02650   0.06520   0.25140   0.01267  Uiso   1.00
C88    C     0.67300   0.16200   0.00000   0.01267  Uiso   1.00
C89    C     0.13300   0.08200   0.85500   0.01267  Uiso   1.00
C90    C     0.20063   0.79937   0.44690   0.01267  Uiso   1.00
C91    C     0.03870   0.03870   0.05740   0.01267  Uiso   1.00
C92    C     0.64590   0.64590   0.50000   0.01267  Uiso   1.00
C93    C     0.21300   0.25900   0.00000   0.01267  Uiso   1.00
C94    C     0.93810   0.97070   0.68660   0.01267  Uiso   1.00
C95    C     0.94000   0.95400   0.87790   0.01267  Uiso   1.00
C96    C     0.94600   0.14370   0.86630   0.01267  Uiso   1.00
C97    C     0.95400   0.06000   0.12210   0.01267  Uiso   1.00
C98    C     0.02650   0.06520   0.74860   0.01267  Uiso   1.00
C99    C     0.06190   0.02930   0.68660   0.01267  Uiso   1.00
C100   C     0.92400   0.07600   0.00000   0.01267  Uiso   1.00
C101   C     0.28980   0.71020   0.50000   0.01267  Uiso   1.00
C102   C     0.03870   0.96130   0.05740   0.01267  Uiso   1.00
C103   C     0.06520   0.02650   0.25140   0.01267  Uiso   1.00
C104   C     0.06190   0.97070   0.31340   0.01267  Uiso   1.00
C105   C     0.04500   0.76200   0.00000   0.01267  Uiso   1.00
C106   C     0.56640   0.67150   0.50000   0.01267  Uiso   1.00
C107   C     0.95500   0.76200   0.00000   0.01267  Uiso   1.00
C108   C     0.07800   0.31600   0.00000   0.01267  Uiso   1.00
C109   C     0.24500   0.54110   0.50000   0.01267  Uiso   1.00
C110   C     0.91800   0.13300   0.85500   0.01267  Uiso   1.00
C111   C     0.06930   0.01700   0.11690   0.01267  Uiso   1.00
C112   C     0.17000   0.90400   0.00000   0.01267  Uiso   1.00
C113   C     0.95500   0.23800   0.00000   0.01267  Uiso   1.00
C114   C     0.08200   0.13300   0.14500   0.01267  Uiso   1.00
C115   C     0.02650   0.93480   0.25140   0.01267  Uiso   1.00
C116   C     0.79937   0.20063   0.44690   0.01267  Uiso   1.00
C117   C     0.04600   0.94000   0.12210   0.01267  Uiso   1.00
C118   C     0.75500   0.45890   0.50000   0.01267  Uiso   1.00
C119   C     0.93480   0.02650   0.25140   0.01267  Uiso   1.00
C120   C     0.17280   0.82720   0.50000   0.01267  Uiso   1.00
C121   C     0.79937   0.20063   0.55310   0.01267  Uiso   1.00
C122   C     0.76200   0.04500   0.00000   0.01267  Uiso   1.00
C123   C     0.76200   0.95500   0.00000   0.01267  Uiso   1.00
C124   C     0.06190   0.02930   0.31340   0.01267  Uiso   1.00
C125   C     0.85630   0.05400   0.86630   0.01267  Uiso   1.00
C126   C     0.08200   0.13300   0.85500   0.01267  Uiso   1.00
C127   C     0.01700   0.93070   0.11690   0.01267  Uiso   1.00
C128   C     0.45890   0.75500   0.50000   0.01267  Uiso   1.00
C129   C     0.97350   0.93480   0.25140   0.01267  Uiso   1.00
C130   C     0.00000   0.00000   0.21420   0.01267  Uiso   1.00
C131   C     0.32850   0.43360   0.50000   0.01267  Uiso   1.00
C132   C     0.13300   0.08200   0.14500   0.01267  Uiso   1.00
C133   C     0.07800   0.68400   0.00000   0.01267  Uiso   1.00
C134   C     0.14370   0.94600   0.13370   0.01267  Uiso   1.00
C135   C     0.54110   0.24500   0.50000   0.01267  Uiso   1.00
C136   C     0.68400   0.07800   0.00000   0.01267  Uiso   1.00
C137   C     0.94600   0.85630   0.13370   0.01267  Uiso   1.00
C138   C     0.91800   0.86700   0.85500   0.01267  Uiso   1.00
C139   C     0.93810   0.02930   0.31340   0.01267  Uiso   1.00
C140   C     0.89420   0.89420   0.50000   0.01267  Uiso   1.00
C141   C     0.05400   0.85630   0.86630   0.01267  Uiso   1.00
C142   C     0.78700   0.25900   0.00000   0.01267  Uiso   1.00
C143   C     0.43360   0.67150   0.50000   0.01267  Uiso   1.00
C144   C     0.93480   0.97350   0.25140   0.01267  Uiso   1.00
C145   C     0.96130   0.96130   0.05740   0.01267  Uiso   1.00
C146   C     0.09600   0.83000   0.00000   0.01267  Uiso   1.00
C147   C     0.09600   0.17000   0.00000   0.01267  Uiso   1.00
C148   C     0.93810   0.02930   0.68660   0.01267  Uiso   1.00
C149   C     0.10580   0.10580   0.50000   0.01267  Uiso   1.00
C150   C     0.04500   0.23800   0.00000   0.01267  Uiso   1.00
C151   C     0.83000   0.90400   0.00000   0.01267  Uiso   1.00
C152   C     0.14370   0.05400   0.86630   0.01267  Uiso   1.00
C153   C     0.83000   0.09600   0.00000   0.01267  Uiso   1.00
C154   C     0.23800   0.04500   0.00000   0.01267  Uiso   1.00
C155   C     0.94000   0.95400   0.12210   0.01267  Uiso   1.00
C156   C     0.05400   0.14370   0.13370   0.01267  Uiso   1.00
C157   C     0.02930   0.06190   0.31340   0.01267  Uiso   1.00
C158   C     0.18100   0.18100   0.00000   0.01267  Uiso   1.00
C159   C     0.54110   0.75500   0.50000   0.01267  Uiso   1.00
C160   C     0.81900   0.18100   0.00000   0.01267  Uiso   1.00
C161   C     0.00000   0.00000   0.78580   0.01267  Uiso   1.00
C162   C     0.94600   0.85630   0.86630   0.01267  Uiso   1.00
C163   C     0.86700   0.91800   0.85500   0.01267  Uiso   1.00
C164   C     0.73870   0.73870   0.55080   0.01267  Uiso   1.00
C165   C     0.90400   0.83000   0.00000   0.01267  Uiso   1.00
C166   C     0.97070   0.93810   0.31340   0.01267  Uiso   1.00
C167   C     0.26130   0.73870   0.44920   0.01267  Uiso   1.00
C168   C     0.85630   0.94600   0.86630   0.01267  Uiso   1.00
C169   C     0.71020   0.71020   0.50000   0.01267  Uiso   1.00
C170   C     0.28980   0.28980   0.50000   0.01267  Uiso   1.00
C171   C     0.06190   0.97070   0.68660   0.01267  Uiso   1.00
C172   C     0.92200   0.31600   0.00000   0.01267  Uiso   1.00
C173   C     0.67150   0.43360   0.50000   0.01267  Uiso   1.00
C174   C     0.97070   0.93810   0.68660   0.01267  Uiso   1.00
C175   C     0.94000   0.04600   0.12210   0.01267  Uiso   1.00
C176   C     0.10580   0.89420   0.50000   0.01267  Uiso   1.00
C177   C     0.04600   0.06000   0.12210   0.01267  Uiso   1.00
C178   C     0.97070   0.06190   0.31340   0.01267  Uiso   1.00
C179   C     0.06930   0.98300   0.11690   0.01267  Uiso   1.00
C180   C     0.07600   0.07600   0.00000   0.01267  Uiso   1.00
C181   C     0.14370   0.05400   0.13370   0.01267  Uiso   1.00
C182   C     0.93070   0.98300   0.11690   0.01267  Uiso   1.00
C183   C     0.26130   0.26130   0.55080   0.01267  Uiso   1.00
C184   C     0.95400   0.94000   0.12210   0.01267  Uiso   1.00
C185   C     0.73870   0.26130   0.55080   0.01267  Uiso   1.00
C186   C     0.03870   0.03870   0.94260   0.01267  Uiso   1.00
C187   C     0.14370   0.94600   0.86630   0.01267  Uiso   1.00
C188   C     0.04600   0.94000   0.87790   0.01267  Uiso   1.00
C189   C     0.97350   0.93480   0.74860   0.01267  Uiso   1.00
C190   C     0.01700   0.93070   0.88310   0.01267  Uiso   1.00
C191   C     0.97070   0.06190   0.68660   0.01267  Uiso   1.00
C192   C     0.35410   0.35410   0.50000   0.01267  Uiso   1.00
C193   C     0.93070   0.01700   0.88310   0.01267  Uiso   1.00
C194   C     0.06520   0.97350   0.25140   0.01267  Uiso   1.00
C195   C     0.98300   0.06930   0.88310   0.01267  Uiso   1.00
C196   C     0.74100   0.21300   0.00000   0.01267  Uiso   1.00
C197   C     0.25900   0.78700   0.00000   0.01267  Uiso   1.00
C198   C     0.93480   0.02650   0.74860   0.01267  Uiso   1.00
C199   C     0.08200   0.86700   0.14500   0.01267  Uiso   1.00
C200   C     0.78700   0.74100   0.00000   0.01267  Uiso   1.00
C201   C     0.06520   0.97350   0.74860   0.01267  Uiso   1.00
C202   C     0.85630   0.05400   0.13370   0.01267  Uiso   1.00
C203   C     0.20063   0.79937   0.55310   0.01267  Uiso   1.00
C204   C     0.13300   0.91800   0.14500   0.01267  Uiso   1.00
N1     N     0.00000   0.95700   0.94600   0.01267  Uiso   1.00
N2     N     0.00000   0.04300   0.05400   0.01267  Uiso   1.00
N3     N     0.04300   0.00000   0.05400   0.01267  Uiso   1.00
N4     N     0.95700   0.00000   0.94600   0.01267  Uiso   1.00
N5     N     0.00000   0.00000   0.64820   0.01267  Uiso   1.00
N6     N     0.00000   0.00000   0.35180   0.01267  Uiso   1.00
N7     N     0.04300   0.00000   0.94600   0.01267  Uiso   1.00
N8     N     0.50000   0.37910   0.50000   0.01267  Uiso   1.00
N9     N     0.95700   0.00000   0.05400   0.01267  Uiso   1.00
N10    N     0.62090   0.50000   0.50000   0.01267  Uiso   1.00
N11    N     0.00000   0.04300   0.94600   0.01267  Uiso   1.00
N12    N     0.37910   0.50000   0.50000   0.01267  Uiso   1.00
N13    N     0.50000   0.62090   0.50000   0.01267  Uiso   1.00
N14    N     0.00000   0.95700   0.05400   0.01267  Uiso   1.00
O1     O     0.08422   0.08422   0.44760   0.01267  Uiso   1.00
O2     O     0.08422   0.91578   0.55240   0.01267  Uiso   1.00
O3     O     0.91578   0.91578   0.55240   0.01267  Uiso   1.00
O4     O     0.91578   0.08422   0.44760   0.01267  Uiso   1.00
O5     O     0.08422   0.08422   0.55240   0.01267  Uiso   1.00
O6     O     0.91578   0.91578   0.44760   0.01267  Uiso   1.00
O7     O     0.91578   0.08422   0.55240   0.01267  Uiso   1.00
O8     O     0.08422   0.91578   0.44760   0.01267  Uiso   1.00
F1     F     0.91200   0.14600   0.00000   0.01267  Uiso   1.00
F2     F     0.14600   0.91200   0.00000   0.01267  Uiso   1.00
F3     F     0.83100   0.01900   0.00000   0.01267  Uiso   1.00
F4     F     0.91200   0.85400   0.00000   0.01267  Uiso   1.00
F5     F     0.01900   0.16900   0.00000   0.01267  Uiso   1.00
F6     F     0.14600   0.08800   0.00000   0.01267  Uiso   1.00
F7     F     0.85400   0.08800   0.00000   0.01267  Uiso   1.00
F8     F     0.16900   0.01900   0.00000   0.01267  Uiso   1.00
F9     F     0.83100   0.98100   0.00000   0.01267  Uiso   1.00
F10    F     0.08800   0.14600   0.00000   0.01267  Uiso   1.00
F11    F     0.98100   0.16900   0.00000   0.01267  Uiso   1.00
F12    F     0.16900   0.98100   0.00000   0.01267  Uiso   1.00
F13    F     0.98100   0.83100   0.00000   0.01267  Uiso   1.00
F14    F     0.08800   0.85400   0.00000   0.01267  Uiso   1.00
F15    F     0.85400   0.91200   0.00000   0.01267  Uiso   1.00
F16    F     0.01900   0.83100   0.00000   0.01267  Uiso   1.00
