data_ja507971r_si_004_freeONLY
_audit_creation_date              2015-08-19
_audit_creation_method            'Materials Studio'
_symmetry_space_group_name_H-M    'P1'
_symmetry_Int_Tables_number       1
_symmetry_cell_setting            triclinic
loop_
_symmetry_equiv_pos_as_xyz
  x,y,z
_cell_length_a                    10.8870
_cell_length_b                    10.9230
_cell_length_c                    14.0680
_cell_angle_alpha                 89.2140
_cell_angle_beta                  87.5900
_cell_angle_gamma                 79.8160
loop_
_atom_site_label
_atom_site_type_symbol
_atom_site_fract_x
_atom_site_fract_y
_atom_site_fract_z
_atom_site_U_iso_or_equiv
_atom_site_adp_type
_atom_site_occupancy
Zn1    Zn    0.21780   0.33787   0.29980   0.01267  Uiso   1.00
Zn2    Zn    0.22961   0.33953   0.09010   0.01267  Uiso   1.00
H1     H     0.82720   0.30710   0.33560   0.01267  Uiso   1.00
H2     H     0.62050   0.37590   0.05020   0.01267  Uiso   1.00
H3     H     0.41470   0.30890   0.92360   0.01267  Uiso   1.00
H4     H     0.42070   0.30700   0.75850   0.01267  Uiso   1.00
H5     H     0.61540   0.29530   0.33200   0.01267  Uiso   1.00
H6     H     0.04210   0.35740   0.77240   0.01267  Uiso   1.00
H7     H     0.04830   0.35790   0.93590   0.01267  Uiso   1.00
H8     H     0.83260   0.38430   0.05400   0.01267  Uiso   1.00
C1     C     0.23100   0.90010   0.28050   0.01267  Uiso   1.00
C2     C     0.34300   0.31810   0.79340   0.01267  Uiso   1.00
C3     C     0.24020   0.10120   0.20220   0.01267  Uiso   1.00
C4     C     0.78850   0.36570   0.11050   0.01267  Uiso   1.00
C5     C     0.18480   0.91400   0.12820   0.01267  Uiso   1.00
C6     C     0.98740   0.34900   0.19590   0.01267  Uiso   1.00
C7     C     0.17730   0.79050   0.12570   0.01267  Uiso   1.00
C8     C     0.59740   0.33270   0.19030   0.01267  Uiso   1.00
C9     C     0.85040   0.34430   0.19420   0.01267  Uiso   1.00
C10    C     0.12480   0.34750   0.89940   0.01267  Uiso   1.00
C11    C     0.33820   0.31900   0.89200   0.01267  Uiso   1.00
C12    C     0.22780   0.33700   0.64170   0.01267  Uiso   1.00
C13    C     0.12790   0.31200   0.49820   0.01267  Uiso   1.00
C14    C     0.22900   0.76820   0.27410   0.01267  Uiso   1.00
C15    C     0.45960   0.32840   0.18830   0.01267  Uiso   1.00
C16    C     0.24800   0.90500   0.11950   0.01267  Uiso   1.00
C17    C     0.66250   0.36040   0.10820   0.01267  Uiso   1.00
C18    C     0.22210   0.71190   0.19900   0.01267  Uiso   1.00
C19    C     0.31510   0.25420   0.58540   0.01267  Uiso   1.00
C20    C     0.28600   0.88300   0.27680   0.01267  Uiso   1.00
C21    C     0.30710   0.25880   0.48870   0.01267  Uiso   1.00
C22    C     0.65950   0.31310   0.27530   0.01267  Uiso   1.00
C23    C     0.78540   0.31960   0.27730   0.01267  Uiso   1.00
C24    C     0.31900   0.35400   0.58910   0.01267  Uiso   1.00
C25    C     0.32800   0.67500   0.35730   0.01267  Uiso   1.00
C26    C     0.33800   0.92800   0.36500   0.01267  Uiso   1.00
C27    C     0.31110   0.35800   0.48730   0.01267  Uiso   1.00
C28    C     0.24500   0.77330   0.11790   0.01267  Uiso   1.00
C29    C     0.12620   0.31200   0.59830   0.01267  Uiso   1.00
C30    C     0.23790   0.96410   0.20200   0.01267  Uiso   1.00
C31    C     0.14640   0.42220   0.59450   0.01267  Uiso   1.00
C32    C     0.15000   0.42430   0.49570   0.01267  Uiso   1.00
C33    C     0.27680   0.76010   0.28110   0.01267  Uiso   1.00
C34    C     0.23050   0.33410   0.74670   0.01267  Uiso   1.00
C35    C     0.21150   0.57600   0.19740   0.01267  Uiso   1.00
C36    C     0.12020   0.34780   0.80180   0.01267  Uiso   1.00
N1     N     0.22130   0.34020   0.44340   0.01267  Uiso   1.00
N2     N     0.23140   0.33320   0.94550   0.01267  Uiso   1.00
O1     O     0.24440   0.15470   0.12360   0.01267  Uiso   1.00
O2     O     0.19900   0.52290   0.27400   0.01267  Uiso   1.00
O3     O     0.41370   0.32720   0.10880   0.01267  Uiso   1.00
O4     O     0.04340   0.35380   0.11690   0.01267  Uiso   1.00
O5     O     0.03520   0.34740   0.27400   0.01267  Uiso   1.00
O6     O     0.23670   0.15290   0.28100   0.01267  Uiso   1.00
O7     O     0.21340   0.52590   0.11770   0.01267  Uiso   1.00
O8     O     0.40100   0.32640   0.26600   0.01267  Uiso   1.00
Zn3    Zn    0.78220   0.66213   0.70020   0.01267  Uiso   1.00
Zn4    Zn    0.77039   0.66047   0.90990   0.01267  Uiso   1.00
H9     H     0.95790   0.64260   0.22760   0.01267  Uiso   1.00
H10    H     0.37950   0.62410   0.94980   0.01267  Uiso   1.00
H11    H     0.57930   0.69300   0.24150   0.01267  Uiso   1.00
H12    H     0.58530   0.69110   0.07640   0.01267  Uiso   1.00
H13    H     0.95170   0.64210   0.06410   0.01267  Uiso   1.00
H14    H     0.38460   0.70470   0.66800   0.01267  Uiso   1.00
H15    H     0.16740   0.61570   0.94600   0.01267  Uiso   1.00
H16    H     0.17280   0.69290   0.66440   0.01267  Uiso   1.00
C37    C     0.85360   0.57780   0.40550   0.01267  Uiso   1.00
C38    C     0.72320   0.23990   0.71890   0.01267  Uiso   1.00
C39    C     0.75500   0.22670   0.88210   0.01267  Uiso   1.00
C40    C     0.68490   0.74580   0.41460   0.01267  Uiso   1.00
C41    C     0.33750   0.63960   0.89180   0.01267  Uiso   1.00
C42    C     0.66200   0.07200   0.63500   0.01267  Uiso   1.00
C43    C     0.14960   0.65570   0.80580   0.01267  Uiso   1.00
C44    C     0.75980   0.89880   0.79780   0.01267  Uiso   1.00
C45    C     0.75200   0.09500   0.88050   0.01267  Uiso   1.00
C46    C     0.76900   0.09990   0.71950   0.01267  Uiso   1.00
C47    C     0.66180   0.68100   0.10800   0.01267  Uiso   1.00
C48    C     0.34050   0.68690   0.72470   0.01267  Uiso   1.00
C49    C     0.54040   0.67160   0.81170   0.01267  Uiso   1.00
C50    C     0.78850   0.42400   0.80260   0.01267  Uiso   1.00
C51    C     0.67200   0.32500   0.64270   0.01267  Uiso   1.00
C52    C     0.77790   0.28810   0.80100   0.01267  Uiso   1.00
C53    C     0.01260   0.65100   0.80410   0.01267  Uiso   1.00
C54    C     0.65700   0.68190   0.20660   0.01267  Uiso   1.00
C55    C     0.71400   0.11700   0.72320   0.01267  Uiso   1.00
C56    C     0.40260   0.66730   0.80970   0.01267  Uiso   1.00
C57    C     0.76950   0.66590   0.25330   0.01267  Uiso   1.00
C58    C     0.69290   0.74120   0.51130   0.01267  Uiso   1.00
C59    C     0.68890   0.64200   0.51270   0.01267  Uiso   1.00
C60    C     0.21150   0.63430   0.88950   0.01267  Uiso   1.00
C61    C     0.76210   0.03590   0.79800   0.01267  Uiso   1.00
C62    C     0.87380   0.68800   0.40170   0.01267  Uiso   1.00
C63    C     0.81520   0.08600   0.87180   0.01267  Uiso   1.00
C64    C     0.87210   0.68800   0.50180   0.01267  Uiso   1.00
C65    C     0.82270   0.20950   0.87430   0.01267  Uiso   1.00
C66    C     0.85000   0.57570   0.50430   0.01267  Uiso   1.00
C67    C     0.68100   0.64600   0.41090   0.01267  Uiso   1.00
C68    C     0.77220   0.66300   0.35830   0.01267  Uiso   1.00
C69    C     0.77100   0.23180   0.72590   0.01267  Uiso   1.00
C70    C     0.87980   0.65220   0.19820   0.01267  Uiso   1.00
C71    C     0.87520   0.65250   0.10060   0.01267  Uiso   1.00
C72    C     0.21460   0.68040   0.72270   0.01267  Uiso   1.00
N3     N     0.77870   0.65980   0.55660   0.01267  Uiso   1.00
N4     N     0.76860   0.66680   0.05450   0.01267  Uiso   1.00
O9     O     0.78660   0.47410   0.88230   0.01267  Uiso   1.00
O10    O     0.95660   0.64620   0.88310   0.01267  Uiso   1.00
O11    O     0.58630   0.67280   0.89120   0.01267  Uiso   1.00
O12    O     0.96480   0.65260   0.72600   0.01267  Uiso   1.00
O13    O     0.76330   0.84710   0.71900   0.01267  Uiso   1.00
O14    O     0.75560   0.84530   0.87640   0.01267  Uiso   1.00
O15    O     0.59900   0.67360   0.73400   0.01267  Uiso   1.00
O16    O     0.80100   0.47710   0.72600   0.01267  Uiso   1.00
