data_ja5b00450_si_002_freeONLY
_audit_creation_date              2015-08-19
_audit_creation_method            'Materials Studio'
_symmetry_space_group_name_H-M    'P1'
_symmetry_Int_Tables_number       1
_symmetry_cell_setting            triclinic
loop_
_symmetry_equiv_pos_as_xyz
  x,y,z
_cell_length_a                    21.0800
_cell_length_b                    26.4450
_cell_length_c                    26.4450
_cell_angle_alpha                 120.0000
_cell_angle_beta                  90.0000
_cell_angle_gamma                 90.0000
loop_
_atom_site_label
_atom_site_type_symbol
_atom_site_fract_x
_atom_site_fract_y
_atom_site_fract_z
_atom_site_U_iso_or_equiv
_atom_site_adp_type
_atom_site_occupancy
Si1    Si    0.89321   0.43585   0.43585   0.01267  Uiso   1.00
Si2    Si    0.92041   0.58401   0.58401   0.01267  Uiso   1.00
Si3    Si    0.07959   0.58401   0.58401   0.01267  Uiso   1.00
Si4    Si    0.89321   0.56415   0.56415   0.01267  Uiso   1.00
Si5    Si    0.10679   0.43585   0.43585   0.01267  Uiso   1.00
Si6    Si    0.10679   0.56415   0.56415   0.01267  Uiso   1.00
Si7    Si    0.92041   0.41599   0.41599   0.01267  Uiso   1.00
Si8    Si    0.07959   0.41599   0.41599   0.01267  Uiso   1.00
H1     H     0.61580   0.71440   0.71440   0.01267  Uiso   1.00
H2     H     0.27530   0.30290   0.30290   0.01267  Uiso   1.00
H3     H     0.21670   0.14320   0.14320   0.01267  Uiso   1.00
H4     H     0.38420   0.71440   0.71440   0.01267  Uiso   1.00
H5     H     0.70600   0.20670   0.20670   0.01267  Uiso   1.00
H6     H     0.27530   0.69710   0.69710   0.01267  Uiso   1.00
H7     H     0.57840   0.43600   0.43600   0.01267  Uiso   1.00
H8     H     0.78330   0.14320   0.14320   0.01267  Uiso   1.00
H9     H     0.10910   0.16480   0.16480   0.01267  Uiso   1.00
H10    H     0.45740   0.64780   0.64780   0.01267  Uiso   1.00
H11    H     0.26380   0.29180   0.29180   0.01267  Uiso   1.00
H12    H     0.92120   0.24995   0.24995   0.01267  Uiso   1.00
H13    H     0.54260   0.64780   0.64780   0.01267  Uiso   1.00
H14    H     0.42160   0.56400   0.56400   0.01267  Uiso   1.00
H15    H     0.72470   0.69710   0.69710   0.01267  Uiso   1.00
H16    H     0.73620   0.70820   0.70820   0.01267  Uiso   1.00
H17    H     0.61580   0.28560   0.28560   0.01267  Uiso   1.00
H18    H     0.70600   0.79330   0.79330   0.01267  Uiso   1.00
H19    H     0.42160   0.43600   0.43600   0.01267  Uiso   1.00
H20    H     0.45740   0.35220   0.35220   0.01267  Uiso   1.00
H21    H     0.57840   0.56400   0.56400   0.01267  Uiso   1.00
H22    H     0.92120   0.75005   0.75005   0.01267  Uiso   1.00
H23    H     0.29400   0.79330   0.79330   0.01267  Uiso   1.00
H24    H     0.78330   0.85680   0.85680   0.01267  Uiso   1.00
H25    H     0.07880   0.24995   0.24995   0.01267  Uiso   1.00
H26    H     0.07880   0.75005   0.75005   0.01267  Uiso   1.00
H27    H     0.54260   0.35220   0.35220   0.01267  Uiso   1.00
H28    H     0.10910   0.83520   0.83520   0.01267  Uiso   1.00
H29    H     0.89090   0.83520   0.83520   0.01267  Uiso   1.00
H30    H     0.21670   0.85680   0.85680   0.01267  Uiso   1.00
H31    H     0.29400   0.20670   0.20670   0.01267  Uiso   1.00
H32    H     0.89090   0.16480   0.16480   0.01267  Uiso   1.00
H33    H     0.26380   0.70820   0.70820   0.01267  Uiso   1.00
H34    H     0.72470   0.30290   0.30290   0.01267  Uiso   1.00
H35    H     0.38420   0.28560   0.28560   0.01267  Uiso   1.00
H36    H     0.73620   0.29180   0.29180   0.01267  Uiso   1.00
C1     C     0.39190   0.40900   0.40900   0.01267  Uiso   1.00
C2     C     0.25030   0.78460   0.78460   0.01267  Uiso   1.00
C3     C     0.87750   0.75880   0.75880   0.01267  Uiso   1.00
C4     C     0.85190   0.66730   0.66730   0.01267  Uiso   1.00
C5     C     0.78580   0.61040   0.61040   0.01267  Uiso   1.00
C6     C     0.16840   0.27890   0.27890   0.01267  Uiso   1.00
C7     C     0.12250   0.24120   0.24120   0.01267  Uiso   1.00
C8     C     0.16840   0.72110   0.72110   0.01267  Uiso   1.00
C9     C     0.32720   0.58080   0.58080   0.01267  Uiso   1.00
C10    C     0.63030   0.31970   0.31970   0.01267  Uiso   1.00
C11    C     0.69500   0.67011   0.67011   0.01267  Uiso   1.00
C12    C     0.36970   0.31970   0.31970   0.01267  Uiso   1.00
C13    C     0.21420   0.38960   0.38960   0.01267  Uiso   1.00
C14    C     0.83160   0.27890   0.27890   0.01267  Uiso   1.00
C15    C     0.71620   0.37965   0.37965   0.01267  Uiso   1.00
C16    C     0.67280   0.58080   0.58080   0.01267  Uiso   1.00
C17    C     0.83160   0.72110   0.72110   0.01267  Uiso   1.00
C18    C     0.14810   0.66730   0.66730   0.01267  Uiso   1.00
C19    C     0.60810   0.59100   0.59100   0.01267  Uiso   1.00
C20    C     0.23240   0.26600   0.26600   0.01267  Uiso   1.00
C21    C     0.25030   0.21540   0.21540   0.01267  Uiso   1.00
C22    C     0.79560   0.17770   0.17770   0.01267  Uiso   1.00
C23    C     0.78580   0.38960   0.38960   0.01267  Uiso   1.00
C24    C     0.67280   0.41920   0.41920   0.01267  Uiso   1.00
C25    C     0.63030   0.68030   0.68030   0.01267  Uiso   1.00
C26    C     0.41320   0.35920   0.35920   0.01267  Uiso   1.00
C27    C     0.85950   0.19060   0.19060   0.01267  Uiso   1.00
C28    C     0.74970   0.78460   0.78460   0.01267  Uiso   1.00
C29    C     0.76760   0.26600   0.26600   0.01267  Uiso   1.00
C30    C     0.74970   0.21540   0.21540   0.01267  Uiso   1.00
C31    C     0.14810   0.33270   0.33270   0.01267  Uiso   1.00
C32    C     0.87750   0.24120   0.24120   0.01267  Uiso   1.00
C33    C     0.69500   0.32990   0.32990   0.01267  Uiso   1.00
C34    C     0.39190   0.59100   0.59100   0.01267  Uiso   1.00
C35    C     0.12250   0.75880   0.75880   0.01267  Uiso   1.00
C36    C     0.85190   0.33270   0.33270   0.01267  Uiso   1.00
C37    C     0.79560   0.82230   0.82230   0.01267  Uiso   1.00
C38    C     0.30500   0.32990   0.32990   0.01267  Uiso   1.00
C39    C     0.28380   0.37965   0.37965   0.01267  Uiso   1.00
C40    C     0.85950   0.80940   0.80940   0.01267  Uiso   1.00
C41    C     0.14050   0.80940   0.80940   0.01267  Uiso   1.00
C42    C     0.14050   0.19060   0.19060   0.01267  Uiso   1.00
C43    C     0.60810   0.40900   0.40900   0.01267  Uiso   1.00
C44    C     0.76760   0.73400   0.73400   0.01267  Uiso   1.00
C45    C     0.58680   0.64080   0.64080   0.01267  Uiso   1.00
C46    C     0.30500   0.67011   0.67011   0.01267  Uiso   1.00
C47    C     0.41320   0.64080   0.64080   0.01267  Uiso   1.00
C48    C     0.36970   0.68030   0.68030   0.01267  Uiso   1.00
C49    C     0.32720   0.41920   0.41920   0.01267  Uiso   1.00
C50    C     0.20440   0.82230   0.82230   0.01267  Uiso   1.00
C51    C     0.28380   0.62035   0.62035   0.01267  Uiso   1.00
C52    C     0.20440   0.17770   0.17770   0.01267  Uiso   1.00
C53    C     0.21420   0.61040   0.61040   0.01267  Uiso   1.00
C54    C     0.58680   0.35920   0.35920   0.01267  Uiso   1.00
C55    C     0.71620   0.62035   0.62035   0.01267  Uiso   1.00
C56    C     0.23240   0.73400   0.73400   0.01267  Uiso   1.00
O1     O     0.80710   0.36660   0.36660   0.01267  Uiso   1.00
O2     O     0.17670   0.35120   0.35120   0.01267  Uiso   1.00
O3     O     0.19290   0.36660   0.36660   0.01267  Uiso   1.00
O4     O     0.82330   0.64880   0.64880   0.01267  Uiso   1.00
O5     O     0.91000   0.65500   0.65500   0.01267  Uiso   1.00
O6     O     0.17670   0.64880   0.64880   0.01267  Uiso   1.00
O7     O     0.19330   0.43420   0.43420   0.01267  Uiso   1.00
O8     O     0.19290   0.63340   0.63340   0.01267  Uiso   1.00
O9     O     0.20930   0.47680   0.47680   0.01267  Uiso   1.00
O10    O     0.20930   0.52320   0.52320   0.01267  Uiso   1.00
O11    O     0.80670   0.43420   0.43420   0.01267  Uiso   1.00
O12    O     0.96400   0.33290   0.33290   0.01267  Uiso   1.00
O13    O     0.09000   0.34500   0.34500   0.01267  Uiso   1.00
O14    O     0.79070   0.47680   0.47680   0.01267  Uiso   1.00
O15    O     0.79070   0.52320   0.52320   0.01267  Uiso   1.00
O16    O     0.80670   0.56580   0.56580   0.01267  Uiso   1.00
O17    O     0.82330   0.35120   0.35120   0.01267  Uiso   1.00
O18    O     0.19330   0.56580   0.56580   0.01267  Uiso   1.00
O19    O     0.91000   0.34500   0.34500   0.01267  Uiso   1.00
O20    O     0.03600   0.33290   0.33290   0.01267  Uiso   1.00
O21    O     0.96400   0.66710   0.66710   0.01267  Uiso   1.00
O22    O     0.03600   0.66710   0.66710   0.01267  Uiso   1.00
O23    O     0.80710   0.63340   0.63340   0.01267  Uiso   1.00
O24    O     0.09000   0.65500   0.65500   0.01267  Uiso   1.00
F1     F     0.27700   0.69870   0.69870   0.01267  Uiso   1.00
F2     F     0.06150   0.74750   0.74750   0.01267  Uiso   1.00
F3     F     0.93850   0.74750   0.74750   0.01267  Uiso   1.00
F4     F     0.93850   0.25250   0.25250   0.01267  Uiso   1.00
F5     F     0.69180   0.53340   0.53340   0.01267  Uiso   1.00
F6     F     0.27700   0.30130   0.30130   0.01267  Uiso   1.00
F7     F     0.72300   0.69870   0.69870   0.01267  Uiso   1.00
F8     F     0.69180   0.46660   0.46660   0.01267  Uiso   1.00
F9     F     0.30820   0.53340   0.53340   0.01267  Uiso   1.00
F10    F     0.30820   0.46660   0.46660   0.01267  Uiso   1.00
F11    F     0.72300   0.30130   0.30130   0.01267  Uiso   1.00
F12    F     0.06150   0.25250   0.25250   0.01267  Uiso   1.00
Si9    Si    0.10679  -0.00000   0.43585   0.01267  Uiso   1.00
Si10   Si    0.92041   0.00000   0.41599   0.01267  Uiso   1.00
Si11   Si    0.89321  -0.00000   0.43585   0.01267  Uiso   1.00
Si12   Si    0.92041   0.00000   0.58401   0.01267  Uiso   1.00
Si13   Si    0.10679   0.00000   0.56415   0.01267  Uiso   1.00
Si14   Si    0.89321   0.00000   0.56415   0.01267  Uiso   1.00
Si15   Si    0.07959   0.00000   0.58401   0.01267  Uiso   1.00
Si16   Si    0.07959   0.00000   0.41599   0.01267  Uiso   1.00
H37    H     0.72470   0.00000   0.30290   0.01267  Uiso   1.00
H38    H     0.61580  -0.00000   0.71440   0.01267  Uiso   1.00
H39    H     0.27530   0.00000   0.30290   0.01267  Uiso   1.00
H40    H     0.54260   0.00000   0.64780   0.01267  Uiso   1.00
H41    H     0.21670   0.00000   0.14320   0.01267  Uiso   1.00
H42    H     0.92120   0.00000   0.75005   0.01267  Uiso   1.00
H43    H     0.92120   0.00000   0.24995   0.01267  Uiso   1.00
H44    H     0.89090   0.00000   0.83520   0.01267  Uiso   1.00
H45    H     0.10910   0.00000   0.16480   0.01267  Uiso   1.00
H46    H     0.21670   0.00000   0.85680   0.01267  Uiso   1.00
H47    H     0.73620   0.00000   0.70820   0.01267  Uiso   1.00
H48    H     0.78330   0.00000   0.85680   0.01267  Uiso   1.00
H49    H     0.54260   0.00000   0.35220   0.01267  Uiso   1.00
H50    H     0.27530   0.00000   0.69710   0.01267  Uiso   1.00
H51    H     0.78330   0.00000   0.14320   0.01267  Uiso   1.00
H52    H     0.61580   0.00000   0.28560   0.01267  Uiso   1.00
H53    H     0.70600   0.00000   0.20670   0.01267  Uiso   1.00
H54    H     0.45740   0.00000   0.35220   0.01267  Uiso   1.00
H55    H     0.29400   0.00000   0.79330   0.01267  Uiso   1.00
H56    H     0.07880   0.00000   0.24995   0.01267  Uiso   1.00
H57    H     0.57840   0.00000   0.56400   0.01267  Uiso   1.00
H58    H     0.89090   0.00000   0.16480   0.01267  Uiso   1.00
H59    H     0.26380   0.00000   0.29180   0.01267  Uiso   1.00
H60    H     0.26380   0.00000   0.70820   0.01267  Uiso   1.00
H61    H     0.73620   0.00000   0.29180   0.01267  Uiso   1.00
H62    H     0.57840  -0.00000   0.43600   0.01267  Uiso   1.00
H63    H     0.10910   0.00000   0.83520   0.01267  Uiso   1.00
H64    H     0.07880   0.00000   0.75005   0.01267  Uiso   1.00
H65    H     0.29400   0.00000   0.20670   0.01267  Uiso   1.00
H66    H     0.42160   0.00000   0.56400   0.01267  Uiso   1.00
H67    H     0.72470   0.00000   0.69710   0.01267  Uiso   1.00
H68    H     0.38420  -0.00000   0.71440   0.01267  Uiso   1.00
H69    H     0.38420   0.00000   0.28560   0.01267  Uiso   1.00
H70    H     0.42160  -0.00000   0.43600   0.01267  Uiso   1.00
H71    H     0.45740   0.00000   0.64780   0.01267  Uiso   1.00
H72    H     0.70600   0.00000   0.79330   0.01267  Uiso   1.00
C57    C     0.67280   0.00000   0.41920   0.01267  Uiso   1.00
C58    C     0.41320   0.00000   0.64080   0.01267  Uiso   1.00
C59    C     0.36970   0.00000   0.68030   0.01267  Uiso   1.00
C60    C     0.23240   0.00000   0.26600   0.01267  Uiso   1.00
C61    C     0.74970  -0.00000   0.78460   0.01267  Uiso   1.00
C62    C     0.12250   0.00000   0.75880   0.01267  Uiso   1.00
C63    C     0.28380   0.00000   0.37965   0.01267  Uiso   1.00
C64    C     0.58680   0.00000   0.64080   0.01267  Uiso   1.00
C65    C     0.39190   0.00000   0.59100   0.01267  Uiso   1.00
C66    C     0.87750   0.00000   0.75880   0.01267  Uiso   1.00
C67    C     0.85950   0.00000   0.19060   0.01267  Uiso   1.00
C68    C     0.71620   0.00000   0.37965   0.01267  Uiso   1.00
C69    C     0.30500   0.00000   0.67010   0.01267  Uiso   1.00
C70    C     0.14050   0.00000   0.19060   0.01267  Uiso   1.00
C71    C     0.36970   0.00000   0.31970   0.01267  Uiso   1.00
C72    C     0.39190  -0.00000   0.40900   0.01267  Uiso   1.00
C73    C     0.78580  -0.00000   0.61040   0.01267  Uiso   1.00
C74    C     0.69500   0.00000   0.67010   0.01267  Uiso   1.00
C75    C     0.76760   0.00000   0.73400   0.01267  Uiso   1.00
C76    C     0.16840   0.00000   0.72110   0.01267  Uiso   1.00
C77    C     0.32720   0.00000   0.41920   0.01267  Uiso   1.00
C78    C     0.79560   0.00000   0.17770   0.01267  Uiso   1.00
C79    C     0.16840   0.00000   0.27890   0.01267  Uiso   1.00
C80    C     0.85950   0.00000   0.80940   0.01267  Uiso   1.00
C81    C     0.85190  -0.00000   0.66730   0.01267  Uiso   1.00
C82    C     0.74970   0.00000   0.21540   0.01267  Uiso   1.00
C83    C     0.30500   0.00000   0.32989   0.01267  Uiso   1.00
C84    C     0.58680   0.00000   0.35920   0.01267  Uiso   1.00
C85    C     0.32720   0.00000   0.58080   0.01267  Uiso   1.00
C86    C     0.21420   0.00000   0.38960   0.01267  Uiso   1.00
C87    C     0.25030  -0.00000   0.78460   0.01267  Uiso   1.00
C88    C     0.14810   0.00000   0.33270   0.01267  Uiso   1.00
C89    C     0.14050   0.00000   0.80940   0.01267  Uiso   1.00
C90    C     0.41320   0.00000   0.35920   0.01267  Uiso   1.00
C91    C     0.12250   0.00000   0.24120   0.01267  Uiso   1.00
C92    C     0.14810   0.00000   0.66730   0.01267  Uiso   1.00
C93    C     0.67280   0.00000   0.58080   0.01267  Uiso   1.00
C94    C     0.83160   0.00000   0.72110   0.01267  Uiso   1.00
C95    C     0.20440   0.00000   0.82230   0.01267  Uiso   1.00
C96    C     0.25030   0.00000   0.21540   0.01267  Uiso   1.00
C97    C     0.69500   0.00000   0.32989   0.01267  Uiso   1.00
C98    C     0.79560   0.00000   0.82230   0.01267  Uiso   1.00
C99    C     0.85190  -0.00000   0.33270   0.01267  Uiso   1.00
C100   C     0.83160   0.00000   0.27890   0.01267  Uiso   1.00
C101   C     0.28380   0.00000   0.62035   0.01267  Uiso   1.00
C102   C     0.60810  -0.00000   0.40900   0.01267  Uiso   1.00
C103   C     0.20440   0.00000   0.17770   0.01267  Uiso   1.00
C104   C     0.21420  -0.00000   0.61040   0.01267  Uiso   1.00
C105   C     0.60810   0.00000   0.59100   0.01267  Uiso   1.00
C106   C     0.63030   0.00000   0.31970   0.01267  Uiso   1.00
C107   C     0.87750   0.00000   0.24120   0.01267  Uiso   1.00
C108   C     0.63030   0.00000   0.68030   0.01267  Uiso   1.00
C109   C     0.78580   0.00000   0.38960   0.01267  Uiso   1.00
C110   C     0.71620   0.00000   0.62035   0.01267  Uiso   1.00
C111   C     0.76760   0.00000   0.26600   0.01267  Uiso   1.00
C112   C     0.23240   0.00000   0.73400   0.01267  Uiso   1.00
O25    O     0.03600  -0.00000   0.33290   0.01267  Uiso   1.00
O26    O     0.17670   0.00000   0.35120   0.01267  Uiso   1.00
O27    O     0.91000   0.00000   0.34500   0.01267  Uiso   1.00
O28    O     0.82330   0.00000   0.64880   0.01267  Uiso   1.00
O29    O     0.80710   0.00000   0.63340   0.01267  Uiso   1.00
O30    O     0.17670   0.00000   0.64880   0.01267  Uiso   1.00
O31    O     0.09000   0.00000   0.65500   0.01267  Uiso   1.00
O32    O     0.80710   0.00000   0.36660   0.01267  Uiso   1.00
O33    O     0.19330  -0.00000   0.43420   0.01267  Uiso   1.00
O34    O     0.91000   0.00000   0.65500   0.01267  Uiso   1.00
O35    O     0.80670  -0.00000   0.43420   0.01267  Uiso   1.00
O36    O     0.80670   0.00000   0.56580   0.01267  Uiso   1.00
O37    O     0.20930   0.00000   0.52320   0.01267  Uiso   1.00
O38    O     0.96400  -0.00000   0.66710   0.01267  Uiso   1.00
O39    O     0.20930   0.00000   0.47680   0.01267  Uiso   1.00
O40    O     0.19290   0.00000   0.63340   0.01267  Uiso   1.00
O41    O     0.03600  -0.00000   0.66710   0.01267  Uiso   1.00
O42    O     0.79070   0.00000   0.52320   0.01267  Uiso   1.00
O43    O     0.79070   0.00000   0.47680   0.01267  Uiso   1.00
O44    O     0.96400  -0.00000   0.33290   0.01267  Uiso   1.00
O45    O     0.19290   0.00000   0.36660   0.01267  Uiso   1.00
O46    O     0.82330   0.00000   0.35120   0.01267  Uiso   1.00
O47    O     0.19330   0.00000   0.56580   0.01267  Uiso   1.00
O48    O     0.09000   0.00000   0.34500   0.01267  Uiso   1.00
F13    F     0.30820   0.00000   0.53340   0.01267  Uiso   1.00
F14    F     0.69180   0.00000   0.46660   0.01267  Uiso   1.00
F15    F     0.06150   0.00000   0.25250   0.01267  Uiso   1.00
F16    F     0.72300   0.00000   0.69870   0.01267  Uiso   1.00
F17    F     0.06150   0.00000   0.74750   0.01267  Uiso   1.00
F18    F     0.27700   0.00000   0.30130   0.01267  Uiso   1.00
F19    F     0.69180   0.00000   0.53340   0.01267  Uiso   1.00
F20    F     0.30820   0.00000   0.46660   0.01267  Uiso   1.00
F21    F     0.93850   0.00000   0.25250   0.01267  Uiso   1.00
F22    F     0.93850   0.00000   0.74750   0.01267  Uiso   1.00
F23    F     0.72300   0.00000   0.30130   0.01267  Uiso   1.00
F24    F     0.27700   0.00000   0.69870   0.01267  Uiso   1.00
Si17   Si    0.92041   0.41599  -0.00000   0.01267  Uiso   1.00
Si18   Si    0.10679   0.43585  -0.00000   0.01267  Uiso   1.00
Si19   Si    0.89321   0.56415  -0.00000   0.01267  Uiso   1.00
Si20   Si    0.10679   0.56415  -0.00000   0.01267  Uiso   1.00
Si21   Si    0.07959   0.58401  -0.00000   0.01267  Uiso   1.00
Si22   Si    0.92041   0.58401  -0.00000   0.01267  Uiso   1.00
Si23   Si    0.89321   0.43585  -0.00000   0.01267  Uiso   1.00
Si24   Si    0.07959   0.41599  -0.00000   0.01267  Uiso   1.00
H73    H     0.57840   0.56400  -0.00000   0.01267  Uiso   1.00
H74    H     0.10910   0.83520  -0.00000   0.01267  Uiso   1.00
H75    H     0.89090   0.83520  -0.00000   0.01267  Uiso   1.00
H76    H     0.92120   0.24995  -0.00000   0.01267  Uiso   1.00
H77    H     0.72470   0.30290   0.00000   0.01267  Uiso   1.00
H78    H     0.07880   0.24995  -0.00000   0.01267  Uiso   1.00
H79    H     0.73620   0.29180   0.00000   0.01267  Uiso   1.00
H80    H     0.38420   0.71440  -0.00000   0.01267  Uiso   1.00
H81    H     0.78330   0.14320  -0.00000   0.01267  Uiso   1.00
H82    H     0.42160   0.56400   0.00000   0.01267  Uiso   1.00
H83    H     0.07880   0.75005  -0.00000   0.01267  Uiso   1.00
H84    H     0.89090   0.16480  -0.00000   0.01267  Uiso   1.00
H85    H     0.21670   0.14320  -0.00000   0.01267  Uiso   1.00
H86    H     0.45740   0.64780  -0.00000   0.01267  Uiso   1.00
H87    H     0.21670   0.85680  -0.00000   0.01267  Uiso   1.00
H88    H     0.70600   0.20670  -0.00000   0.01267  Uiso   1.00
H89    H     0.70600   0.79330  -0.00000   0.01267  Uiso   1.00
H90    H     0.38420   0.28560  -0.00000   0.01267  Uiso   1.00
H91    H     0.78330   0.85680  -0.00000   0.01267  Uiso   1.00
H92    H     0.92120   0.75005  -0.00000   0.01267  Uiso   1.00
H93    H     0.45740   0.35220   0.00000   0.01267  Uiso   1.00
H94    H     0.73620   0.70820  -0.00000   0.01267  Uiso   1.00
H95    H     0.29400   0.79330  -0.00000   0.01267  Uiso   1.00
H96    H     0.26380   0.29180   0.00000   0.01267  Uiso   1.00
H97    H     0.57840   0.43600  -0.00000   0.01267  Uiso   1.00
H98    H     0.29400   0.20670  -0.00000   0.01267  Uiso   1.00
H99    H     0.54260   0.35220   0.00000   0.01267  Uiso   1.00
H100   H     0.26380   0.70820  -0.00000   0.01267  Uiso   1.00
H101   H     0.27530   0.69710  -0.00000   0.01267  Uiso   1.00
H102   H     0.72470   0.69710  -0.00000   0.01267  Uiso   1.00
H103   H     0.42160   0.43600  -0.00000   0.01267  Uiso   1.00
H104   H     0.61580   0.28560  -0.00000   0.01267  Uiso   1.00
H105   H     0.61580   0.71440  -0.00000   0.01267  Uiso   1.00
H106   H     0.10910   0.16480   0.00000   0.01267  Uiso   1.00
H107   H     0.54260   0.64780  -0.00000   0.01267  Uiso   1.00
H108   H     0.27530   0.30290   0.00000   0.01267  Uiso   1.00
C113   C     0.60810   0.40900  -0.00000   0.01267  Uiso   1.00
C114   C     0.12250   0.24120  -0.00000   0.01267  Uiso   1.00
C115   C     0.76760   0.73400  -0.00000   0.01267  Uiso   1.00
C116   C     0.85950   0.80940  -0.00000   0.01267  Uiso   1.00
C117   C     0.16840   0.72110  -0.00000   0.01267  Uiso   1.00
C118   C     0.78580   0.38960  -0.00000   0.01267  Uiso   1.00
C119   C     0.69500   0.32990  -0.00000   0.01267  Uiso   1.00
C120   C     0.32720   0.58080  -0.00000   0.01267  Uiso   1.00
C121   C     0.25030   0.21540  -0.00000   0.01267  Uiso   1.00
C122   C     0.30500   0.67011  -0.00000   0.01267  Uiso   1.00
C123   C     0.20440   0.17770  -0.00000   0.01267  Uiso   1.00
C124   C     0.83160   0.72110  -0.00000   0.01267  Uiso   1.00
C125   C     0.14810   0.33270  -0.00000   0.01267  Uiso   1.00
C126   C     0.12250   0.75880  -0.00000   0.01267  Uiso   1.00
C127   C     0.25030   0.78460  -0.00000   0.01267  Uiso   1.00
C128   C     0.71620   0.37965  -0.00000   0.01267  Uiso   1.00
C129   C     0.76760   0.26600  -0.00000   0.01267  Uiso   1.00
C130   C     0.16840   0.27890  -0.00000   0.01267  Uiso   1.00
C131   C     0.69500   0.67011  -0.00000   0.01267  Uiso   1.00
C132   C     0.85950   0.19060  -0.00000   0.01267  Uiso   1.00
C133   C     0.87750   0.75880  -0.00000   0.01267  Uiso   1.00
C134   C     0.58680   0.64080  -0.00000   0.01267  Uiso   1.00
C135   C     0.28380   0.62035   0.00000   0.01267  Uiso   1.00
C136   C     0.63030   0.31970   0.00000   0.01267  Uiso   1.00
C137   C     0.41320   0.64080   0.00000   0.01267  Uiso   1.00
C138   C     0.14050   0.19060   0.00000   0.01267  Uiso   1.00
C139   C     0.74970   0.78460  -0.00000   0.01267  Uiso   1.00
C140   C     0.85190   0.33270  -0.00000   0.01267  Uiso   1.00
C141   C     0.32720   0.41920  -0.00000   0.01267  Uiso   1.00
C142   C     0.21420   0.38960  -0.00000   0.01267  Uiso   1.00
C143   C     0.28380   0.37965  -0.00000   0.01267  Uiso   1.00
C144   C     0.60810   0.59100  -0.00000   0.01267  Uiso   1.00
C145   C     0.20440   0.82230  -0.00000   0.01267  Uiso   1.00
C146   C     0.21420   0.61040  -0.00000   0.01267  Uiso   1.00
C147   C     0.23240   0.26600   0.00000   0.01267  Uiso   1.00
C148   C     0.23240   0.73400  -0.00000   0.01267  Uiso   1.00
C149   C     0.36970   0.68030  -0.00000   0.01267  Uiso   1.00
C150   C     0.85190   0.66730  -0.00000   0.01267  Uiso   1.00
C151   C     0.39190   0.59100  -0.00000   0.01267  Uiso   1.00
C152   C     0.67280   0.58080  -0.00000   0.01267  Uiso   1.00
C153   C     0.83160   0.27890  -0.00000   0.01267  Uiso   1.00
C154   C     0.14050   0.80940   0.00000   0.01267  Uiso   1.00
C155   C     0.71620   0.62035   0.00000   0.01267  Uiso   1.00
C156   C     0.79560   0.17770  -0.00000   0.01267  Uiso   1.00
C157   C     0.79560   0.82230  -0.00000   0.01267  Uiso   1.00
C158   C     0.30500   0.32990  -0.00000   0.01267  Uiso   1.00
C159   C     0.39190   0.40900  -0.00000   0.01267  Uiso   1.00
C160   C     0.36970   0.31970  -0.00000   0.01267  Uiso   1.00
C161   C     0.67280   0.41920   0.00000   0.01267  Uiso   1.00
C162   C     0.14810   0.66730  -0.00000   0.01267  Uiso   1.00
C163   C     0.41320   0.35920  -0.00000   0.01267  Uiso   1.00
C164   C     0.78580   0.61040  -0.00000   0.01267  Uiso   1.00
C165   C     0.58680   0.35920  -0.00000   0.01267  Uiso   1.00
C166   C     0.87750   0.24120  -0.00000   0.01267  Uiso   1.00
C167   C     0.74970   0.21540  -0.00000   0.01267  Uiso   1.00
C168   C     0.63030   0.68030  -0.00000   0.01267  Uiso   1.00
O49    O     0.80710   0.36660  -0.00000   0.01267  Uiso   1.00
O50    O     0.79070   0.52320  -0.00000   0.01267  Uiso   1.00
O51    O     0.80710   0.63340  -0.00000   0.01267  Uiso   1.00
O52    O     0.20930   0.47680  -0.00000   0.01267  Uiso   1.00
O53    O     0.03600   0.33290   0.00000   0.01267  Uiso   1.00
O54    O     0.03600   0.66710  -0.00000   0.01267  Uiso   1.00
O55    O     0.19290   0.63340  -0.00000   0.01267  Uiso   1.00
O56    O     0.20930   0.52320  -0.00000   0.01267  Uiso   1.00
O57    O     0.82330   0.64880  -0.00000   0.01267  Uiso   1.00
O58    O     0.79070   0.47680  -0.00000   0.01267  Uiso   1.00
O59    O     0.82330   0.35120  -0.00000   0.01267  Uiso   1.00
O60    O     0.96400   0.33290  -0.00000   0.01267  Uiso   1.00
O61    O     0.19330   0.43420  -0.00000   0.01267  Uiso   1.00
O62    O     0.09000   0.34500   0.00000   0.01267  Uiso   1.00
O63    O     0.17670   0.35120  -0.00000   0.01267  Uiso   1.00
O64    O     0.80670   0.56580  -0.00000   0.01267  Uiso   1.00
O65    O     0.19290   0.36660  -0.00000   0.01267  Uiso   1.00
O66    O     0.80670   0.43420  -0.00000   0.01267  Uiso   1.00
O67    O     0.91000   0.65500  -0.00000   0.01267  Uiso   1.00
O68    O     0.19330   0.56580  -0.00000   0.01267  Uiso   1.00
O69    O     0.17670   0.64880  -0.00000   0.01267  Uiso   1.00
O70    O     0.96400   0.66710  -0.00000   0.01267  Uiso   1.00
O71    O     0.91000   0.34500  -0.00000   0.01267  Uiso   1.00
O72    O     0.09000   0.65500  -0.00000   0.01267  Uiso   1.00
F25    F     0.72300   0.69870  -0.00000   0.01267  Uiso   1.00
F26    F     0.30820   0.46660  -0.00000   0.01267  Uiso   1.00
F27    F     0.69180   0.53340  -0.00000   0.01267  Uiso   1.00
F28    F     0.93850   0.25250  -0.00000   0.01267  Uiso   1.00
F29    F     0.06150   0.74750  -0.00000   0.01267  Uiso   1.00
F30    F     0.69180   0.46660  -0.00000   0.01267  Uiso   1.00
F31    F     0.93850   0.74750  -0.00000   0.01267  Uiso   1.00
F32    F     0.06150   0.25250  -0.00000   0.01267  Uiso   1.00
F33    F     0.72300   0.30130  -0.00000   0.01267  Uiso   1.00
F34    F     0.27700   0.69870   0.00000   0.01267  Uiso   1.00
F35    F     0.27700   0.30130   0.00000   0.01267  Uiso   1.00
F36    F     0.30820   0.53340  -0.00000   0.01267  Uiso   1.00
