data_image0
_cell_length_a       19.1998
_cell_length_b       19.1998
_cell_length_c       37.747
_cell_angle_alpha    90
_cell_angle_beta     90
_cell_angle_gamma    120

_symmetry_space_group_name_H-M    "P 1"
_symmetry_int_tables_number       1

loop_
  _symmetry_equiv_pos_as_xyz
  'x, y, z'

loop_
  _atom_site_label
  _atom_site_occupancy
  _atom_site_fract_x
  _atom_site_fract_y
  _atom_site_fract_z
  _atom_site_thermal_displace_type
  _atom_site_B_iso_or_equiv
  _atom_site_type_symbol
  S1       1.0000 0.96170  0.19530  0.35620  Biso   1.000  S
  O1       1.0000 0.21990  0.18250  0.15965  Biso   1.000  O
  O2       1.0000 0.29550  0.22130  0.20854  Biso   1.000  O
  N1       1.0000 0.02400  0.23900  0.38840  Biso   1.000  N
  N2       1.0000 0.99100  0.19200  0.31890  Biso   1.000  N
  C1       1.0000 0.23620  0.20870  0.19150  Biso   1.000  C
  C2       1.0000 0.17710  0.22880  0.20780  Biso   1.000  C
  C3       1.0000 0.13270  0.35900  0.30830  Biso   1.000  C
  C4       1.0000 0.19040  0.25920  0.24210  Biso   1.000  C
  H1       1.0000 0.23760  0.26940  0.25350  Biso   1.000  H
  C5       1.0000 0.09050  0.27500  0.32220  Biso   1.000  C
  S2       1.0000 0.62837  0.52863  0.68953  Biso   1.000  S
  O3       1.0000 0.88657  0.51583  0.49298  Biso   1.000  O
  O4       1.0000 0.96217  0.55463  0.54187  Biso   1.000  O
  N3       1.0000 0.69067  0.57233  0.72173  Biso   1.000  N
  N4       1.0000 0.65767  0.52533  0.65223  Biso   1.000  N
  C6       1.0000 0.90287  0.54203  0.52483  Biso   1.000  C
  C7       1.0000 0.84377  0.56213  0.54113  Biso   1.000  C
  C8       1.0000 0.79937  0.69233  0.64163  Biso   1.000  C
  C9       1.0000 0.85707  0.59253  0.57543  Biso   1.000  C
  H2       1.0000 0.90427  0.60273  0.58683  Biso   1.000  H
  C10      1.0000 0.75717  0.60833  0.65553  Biso   1.000  C
  S3       1.0000 0.29503  0.86197  0.02287  Biso   1.000  S
  O5       1.0000 0.55323  0.84917  0.82632  Biso   1.000  O
  O6       1.0000 0.62883  0.88797  0.87521  Biso   1.000  O
  N5       1.0000 0.35733  0.90567  0.05507  Biso   1.000  N
  N6       1.0000 0.32433  0.85867  0.98557  Biso   1.000  N
  C11      1.0000 0.56953  0.87537  0.85817  Biso   1.000  C
  C12      1.0000 0.51043  0.89547  0.87447  Biso   1.000  C
  C13      1.0000 0.46603  0.02567  0.97497  Biso   1.000  C
  C14      1.0000 0.52373  0.92587  0.90877  Biso   1.000  C
  H3       1.0000 0.57093  0.93607  0.92017  Biso   1.000  H
  C15      1.0000 0.42383  0.94167  0.98887  Biso   1.000  C
  S4       1.0000 0.80470  0.76640  0.35620  Biso   1.000  S
  O7       1.0000 0.81750  0.03740  0.15965  Biso   1.000  O
  O8       1.0000 0.77870  0.07420  0.20854  Biso   1.000  O
  N7       1.0000 0.76100  0.78500  0.38840  Biso   1.000  N
  N8       1.0000 0.80800  0.79900  0.31890  Biso   1.000  N
  C16      1.0000 0.79130  0.02750  0.19150  Biso   1.000  C
  C17      1.0000 0.77120  0.94830  0.20780  Biso   1.000  C
  C18      1.0000 0.64100  0.77370  0.30830  Biso   1.000  C
  C19      1.0000 0.74080  0.93120  0.24210  Biso   1.000  C
  H4       1.0000 0.73060  0.96820  0.25350  Biso   1.000  H
  C20      1.0000 0.72500  0.81550  0.32220  Biso   1.000  C
  S5       1.0000 0.47137  0.09973  0.68953  Biso   1.000  S
  O9       1.0000 0.48417  0.37073  0.49298  Biso   1.000  O
  O10      1.0000 0.44537  0.40753  0.54187  Biso   1.000  O
  N9       1.0000 0.42767  0.11833  0.72173  Biso   1.000  N
  N10      1.0000 0.47467  0.13233  0.65223  Biso   1.000  N
  C21      1.0000 0.45797  0.36083  0.52483  Biso   1.000  C
  C22      1.0000 0.43787  0.28163  0.54113  Biso   1.000  C
  C23      1.0000 0.30767  0.10703  0.64163  Biso   1.000  C
  C24      1.0000 0.40747  0.26453  0.57543  Biso   1.000  C
  H5       1.0000 0.39727  0.30153  0.58683  Biso   1.000  H
  C25      1.0000 0.39167  0.14883  0.65553  Biso   1.000  C
  S6       1.0000 0.13803  0.43307  0.02287  Biso   1.000  S
  O11      1.0000 0.15083  0.70407  0.82632  Biso   1.000  O
  O12      1.0000 0.11203  0.74087  0.87521  Biso   1.000  O
  N11      1.0000 0.09433  0.45167  0.05507  Biso   1.000  N
  N12      1.0000 0.14133  0.46567  0.98557  Biso   1.000  N
  C26      1.0000 0.12463  0.69417  0.85817  Biso   1.000  C
  C27      1.0000 0.10453  0.61497  0.87447  Biso   1.000  C
  C28      1.0000 0.97433  0.44037  0.97497  Biso   1.000  C
  C29      1.0000 0.07413  0.59787  0.90877  Biso   1.000  C
  H6       1.0000 0.06393  0.63487  0.92017  Biso   1.000  H
  C30      1.0000 0.05833  0.48217  0.98887  Biso   1.000  C
  S7       1.0000 0.23360  0.03830  0.35620  Biso   1.000  S
  O13      1.0000 0.96260  0.78010  0.15965  Biso   1.000  O
  O14      1.0000 0.92580  0.70450  0.20854  Biso   1.000  O
  N13      1.0000 0.21500  0.97600  0.38840  Biso   1.000  N
  N14      1.0000 0.20100  0.00900  0.31890  Biso   1.000  N
  C31      1.0000 0.97250  0.76380  0.19150  Biso   1.000  C
  C32      1.0000 0.05170  0.82290  0.20780  Biso   1.000  C
  C33      1.0000 0.22630  0.86730  0.30830  Biso   1.000  C
  C34      1.0000 0.06880  0.80960  0.24210  Biso   1.000  C
  H7       1.0000 0.03180  0.76240  0.25350  Biso   1.000  H
  C35      1.0000 0.18450  0.90950  0.32220  Biso   1.000  C
  S8       1.0000 0.90027  0.37163  0.68953  Biso   1.000  S
  O15      1.0000 0.62927  0.11343  0.49298  Biso   1.000  O
  O16      1.0000 0.59247  0.03783  0.54187  Biso   1.000  O
  N15      1.0000 0.88167  0.30933  0.72173  Biso   1.000  N
  N16      1.0000 0.86767  0.34233  0.65223  Biso   1.000  N
  C36      1.0000 0.63917  0.09713  0.52483  Biso   1.000  C
  C37      1.0000 0.71837  0.15623  0.54113  Biso   1.000  C
  C38      1.0000 0.89297  0.20063  0.64163  Biso   1.000  C
  C39      1.0000 0.73547  0.14293  0.57543  Biso   1.000  C
  H8       1.0000 0.69847  0.09573  0.58683  Biso   1.000  H
  C40      1.0000 0.85117  0.24283  0.65553  Biso   1.000  C
  S9       1.0000 0.56693  0.70497  0.02287  Biso   1.000  S
  O17      1.0000 0.29593  0.44677  0.82632  Biso   1.000  O
  O18      1.0000 0.25913  0.37117  0.87521  Biso   1.000  O
  N17      1.0000 0.54833  0.64267  0.05507  Biso   1.000  N
  N18      1.0000 0.53433  0.67567  0.98557  Biso   1.000  N
  C41      1.0000 0.30583  0.43047  0.85817  Biso   1.000  C
  C42      1.0000 0.38503  0.48957  0.87447  Biso   1.000  C
  C43      1.0000 0.55963  0.53397  0.97497  Biso   1.000  C
  C44      1.0000 0.40213  0.47627  0.90877  Biso   1.000  C
  H9       1.0000 0.36513  0.42907  0.92017  Biso   1.000  H
  C45      1.0000 0.51783  0.57617  0.98887  Biso   1.000  C
  S10      1.0000 0.19530  0.96170  0.64380  Biso   1.000  S
  O19      1.0000 0.18250  0.21990  0.84035  Biso   1.000  O
  O20      1.0000 0.22130  0.29550  0.79146  Biso   1.000  O
  N19      1.0000 0.23900  0.02400  0.61160  Biso   1.000  N
  N20      1.0000 0.19200  0.99100  0.68110  Biso   1.000  N
  C46      1.0000 0.20870  0.23620  0.80850  Biso   1.000  C
  C47      1.0000 0.22880  0.17710  0.79220  Biso   1.000  C
  C48      1.0000 0.35900  0.13270  0.69170  Biso   1.000  C
  C49      1.0000 0.25920  0.19040  0.75790  Biso   1.000  C
  H10      1.0000 0.26940  0.23760  0.74650  Biso   1.000  H
  C50      1.0000 0.27500  0.09050  0.67780  Biso   1.000  C
  S11      1.0000 0.86197  0.29503  0.97713  Biso   1.000  S
  O21      1.0000 0.84917  0.55323  0.17368  Biso   1.000  O
  O22      1.0000 0.88797  0.62883  0.12479  Biso   1.000  O
  N21      1.0000 0.90567  0.35733  0.94493  Biso   1.000  N
  N22      1.0000 0.85867  0.32433  0.01443  Biso   1.000  N
  C51      1.0000 0.87537  0.56953  0.14183  Biso   1.000  C
  C52      1.0000 0.89547  0.51043  0.12553  Biso   1.000  C
  C53      1.0000 0.02567  0.46603  0.02503  Biso   1.000  C
  C54      1.0000 0.92587  0.52373  0.09123  Biso   1.000  C
  H11      1.0000 0.93607  0.57093  0.07983  Biso   1.000  H
  C55      1.0000 0.94167  0.42383  0.01113  Biso   1.000  C
  S12      1.0000 0.52863  0.62837  0.31047  Biso   1.000  S
  O23      1.0000 0.51583  0.88657  0.50702  Biso   1.000  O
  O24      1.0000 0.55463  0.96217  0.45813  Biso   1.000  O
  N23      1.0000 0.57233  0.69067  0.27827  Biso   1.000  N
  N24      1.0000 0.52533  0.65767  0.34777  Biso   1.000  N
  C56      1.0000 0.54203  0.90287  0.47517  Biso   1.000  C
  C57      1.0000 0.56213  0.84377  0.45887  Biso   1.000  C
  C58      1.0000 0.69233  0.79937  0.35837  Biso   1.000  C
  C59      1.0000 0.59253  0.85707  0.42457  Biso   1.000  C
  H12      1.0000 0.60273  0.90427  0.41317  Biso   1.000  H
  C60      1.0000 0.60833  0.75717  0.34447  Biso   1.000  C
  S13      1.0000 0.76640  0.80470  0.64380  Biso   1.000  S
  O25      1.0000 0.03740  0.81750  0.84035  Biso   1.000  O
  O26      1.0000 0.07420  0.77870  0.79146  Biso   1.000  O
  N25      1.0000 0.78500  0.76100  0.61160  Biso   1.000  N
  N26      1.0000 0.79900  0.80800  0.68110  Biso   1.000  N
  C61      1.0000 0.02750  0.79130  0.80850  Biso   1.000  C
  C62      1.0000 0.94830  0.77120  0.79220  Biso   1.000  C
  C63      1.0000 0.77370  0.64100  0.69170  Biso   1.000  C
  C64      1.0000 0.93120  0.74080  0.75790  Biso   1.000  C
  H13      1.0000 0.96820  0.73060  0.74650  Biso   1.000  H
  C65      1.0000 0.81550  0.72500  0.67780  Biso   1.000  C
  S14      1.0000 0.43307  0.13803  0.97713  Biso   1.000  S
  O27      1.0000 0.70407  0.15083  0.17368  Biso   1.000  O
  O28      1.0000 0.74087  0.11203  0.12479  Biso   1.000  O
  N27      1.0000 0.45167  0.09433  0.94493  Biso   1.000  N
  N28      1.0000 0.46567  0.14133  0.01443  Biso   1.000  N
  C66      1.0000 0.69417  0.12463  0.14183  Biso   1.000  C
  C67      1.0000 0.61497  0.10453  0.12553  Biso   1.000  C
  C68      1.0000 0.44037  0.97433  0.02503  Biso   1.000  C
  C69      1.0000 0.59787  0.07413  0.09123  Biso   1.000  C
  H14      1.0000 0.63487  0.06393  0.07983  Biso   1.000  H
  C70      1.0000 0.48217  0.05833  0.01113  Biso   1.000  C
  S15      1.0000 0.09973  0.47137  0.31047  Biso   1.000  S
  O29      1.0000 0.37073  0.48417  0.50702  Biso   1.000  O
  O30      1.0000 0.40753  0.44537  0.45813  Biso   1.000  O
  N29      1.0000 0.11833  0.42767  0.27827  Biso   1.000  N
  N30      1.0000 0.13233  0.47467  0.34777  Biso   1.000  N
  C71      1.0000 0.36083  0.45797  0.47517  Biso   1.000  C
  C72      1.0000 0.28163  0.43787  0.45887  Biso   1.000  C
  C73      1.0000 0.10703  0.30767  0.35837  Biso   1.000  C
  C74      1.0000 0.26453  0.40747  0.42457  Biso   1.000  C
  H15      1.0000 0.30153  0.39727  0.41317  Biso   1.000  H
  C75      1.0000 0.14883  0.39167  0.34447  Biso   1.000  C
  S16      1.0000 0.03830  0.23360  0.64380  Biso   1.000  S
  O31      1.0000 0.78010  0.96260  0.84035  Biso   1.000  O
  O32      1.0000 0.70450  0.92580  0.79146  Biso   1.000  O
  N31      1.0000 0.97600  0.21500  0.61160  Biso   1.000  N
  N32      1.0000 0.00900  0.20100  0.68110  Biso   1.000  N
  C76      1.0000 0.76380  0.97250  0.80850  Biso   1.000  C
  C77      1.0000 0.82290  0.05170  0.79220  Biso   1.000  C
  C78      1.0000 0.86730  0.22630  0.69170  Biso   1.000  C
  C79      1.0000 0.80960  0.06880  0.75790  Biso   1.000  C
  H16      1.0000 0.76240  0.03180  0.74650  Biso   1.000  H
  C80      1.0000 0.90950  0.18450  0.67780  Biso   1.000  C
  S17      1.0000 0.70497  0.56693  0.97713  Biso   1.000  S
  O33      1.0000 0.44677  0.29593  0.17368  Biso   1.000  O
  O34      1.0000 0.37117  0.25913  0.12479  Biso   1.000  O
  N33      1.0000 0.64267  0.54833  0.94493  Biso   1.000  N
  N34      1.0000 0.67567  0.53433  0.01443  Biso   1.000  N
  C81      1.0000 0.43047  0.30583  0.14183  Biso   1.000  C
  C82      1.0000 0.48957  0.38503  0.12553  Biso   1.000  C
  C83      1.0000 0.53397  0.55963  0.02503  Biso   1.000  C
  C84      1.0000 0.47627  0.40213  0.09123  Biso   1.000  C
  H17      1.0000 0.42907  0.36513  0.07983  Biso   1.000  H
  C85      1.0000 0.57617  0.51783  0.01113  Biso   1.000  C
  S18      1.0000 0.37163  0.90027  0.31047  Biso   1.000  S
  O35      1.0000 0.11343  0.62927  0.50702  Biso   1.000  O
  O36      1.0000 0.03783  0.59247  0.45813  Biso   1.000  O
  N35      1.0000 0.30933  0.88167  0.27827  Biso   1.000  N
  N36      1.0000 0.34233  0.86767  0.34777  Biso   1.000  N
  C86      1.0000 0.09713  0.63917  0.47517  Biso   1.000  C
  C87      1.0000 0.15623  0.71837  0.45887  Biso   1.000  C
  C88      1.0000 0.20063  0.89297  0.35837  Biso   1.000  C
  C89      1.0000 0.14293  0.73547  0.42457  Biso   1.000  C
  H18      1.0000 0.09573  0.69847  0.41317  Biso   1.000  H
  C90      1.0000 0.24283  0.85117  0.34447  Biso   1.000  C
  S19      1.0000 0.03830  0.80470  0.64380  Biso   1.000  S
  O37      1.0000 0.78010  0.81750  0.84035  Biso   1.000  O
  O38      1.0000 0.70450  0.77870  0.79146  Biso   1.000  O
  N37      1.0000 0.97600  0.76100  0.61160  Biso   1.000  N
  N38      1.0000 0.00900  0.80800  0.68110  Biso   1.000  N
  C91      1.0000 0.76380  0.79130  0.80850  Biso   1.000  C
  C92      1.0000 0.82290  0.77120  0.79220  Biso   1.000  C
  C93      1.0000 0.86730  0.64100  0.69170  Biso   1.000  C
  C94      1.0000 0.80960  0.74080  0.75790  Biso   1.000  C
  H19      1.0000 0.76240  0.73060  0.74650  Biso   1.000  H
  C95      1.0000 0.90950  0.72500  0.67780  Biso   1.000  C
  S20      1.0000 0.70497  0.13803  0.97713  Biso   1.000  S
  O39      1.0000 0.44677  0.15083  0.17368  Biso   1.000  O
  O40      1.0000 0.37117  0.11203  0.12479  Biso   1.000  O
  N39      1.0000 0.64267  0.09433  0.94493  Biso   1.000  N
  N40      1.0000 0.67567  0.14133  0.01443  Biso   1.000  N
  C96      1.0000 0.43047  0.12463  0.14183  Biso   1.000  C
  C97      1.0000 0.48957  0.10453  0.12553  Biso   1.000  C
  C98      1.0000 0.53397  0.97433  0.02503  Biso   1.000  C
  C99      1.0000 0.47627  0.07413  0.09123  Biso   1.000  C
  H20      1.0000 0.42907  0.06393  0.07983  Biso   1.000  H
  C100     1.0000 0.57617  0.05833  0.01113  Biso   1.000  C
  S21      1.0000 0.37163  0.47137  0.31047  Biso   1.000  S
  O41      1.0000 0.11343  0.48417  0.50702  Biso   1.000  O
  O42      1.0000 0.03783  0.44537  0.45813  Biso   1.000  O
  N41      1.0000 0.30933  0.42767  0.27827  Biso   1.000  N
  N42      1.0000 0.34233  0.47467  0.34777  Biso   1.000  N
  C101     1.0000 0.09713  0.45797  0.47517  Biso   1.000  C
  C102     1.0000 0.15623  0.43787  0.45887  Biso   1.000  C
  C103     1.0000 0.20063  0.30767  0.35837  Biso   1.000  C
  C104     1.0000 0.14293  0.40747  0.42457  Biso   1.000  C
  H21      1.0000 0.09573  0.39727  0.41317  Biso   1.000  H
  C105     1.0000 0.24283  0.39167  0.34447  Biso   1.000  C
  S22      1.0000 0.19530  0.23360  0.64380  Biso   1.000  S
  O43      1.0000 0.18250  0.96260  0.84035  Biso   1.000  O
  O44      1.0000 0.22130  0.92580  0.79146  Biso   1.000  O
  N43      1.0000 0.23900  0.21500  0.61160  Biso   1.000  N
  N44      1.0000 0.19200  0.20100  0.68110  Biso   1.000  N
  C106     1.0000 0.20870  0.97250  0.80850  Biso   1.000  C
  C107     1.0000 0.22880  0.05170  0.79220  Biso   1.000  C
  C108     1.0000 0.35900  0.22630  0.69170  Biso   1.000  C
  C109     1.0000 0.25920  0.06880  0.75790  Biso   1.000  C
  H22      1.0000 0.26940  0.03180  0.74650  Biso   1.000  H
  C110     1.0000 0.27500  0.18450  0.67780  Biso   1.000  C
  S23      1.0000 0.86197  0.56693  0.97713  Biso   1.000  S
  O45      1.0000 0.84917  0.29593  0.17368  Biso   1.000  O
  O46      1.0000 0.88797  0.25913  0.12479  Biso   1.000  O
  N45      1.0000 0.90567  0.54833  0.94493  Biso   1.000  N
  N46      1.0000 0.85867  0.53433  0.01443  Biso   1.000  N
  C111     1.0000 0.87537  0.30583  0.14183  Biso   1.000  C
  C112     1.0000 0.89547  0.38503  0.12553  Biso   1.000  C
  C113     1.0000 0.02567  0.55963  0.02503  Biso   1.000  C
  C114     1.0000 0.92587  0.40213  0.09123  Biso   1.000  C
  H23      1.0000 0.93607  0.36513  0.07983  Biso   1.000  H
  C115     1.0000 0.94167  0.51783  0.01113  Biso   1.000  C
  S24      1.0000 0.52863  0.90027  0.31047  Biso   1.000  S
  O47      1.0000 0.51583  0.62927  0.50702  Biso   1.000  O
  O48      1.0000 0.55463  0.59247  0.45813  Biso   1.000  O
  N47      1.0000 0.57233  0.88167  0.27827  Biso   1.000  N
  N48      1.0000 0.52533  0.86767  0.34777  Biso   1.000  N
  C116     1.0000 0.54203  0.63917  0.47517  Biso   1.000  C
  C117     1.0000 0.56213  0.71837  0.45887  Biso   1.000  C
  C118     1.0000 0.69233  0.89297  0.35837  Biso   1.000  C
  C119     1.0000 0.59253  0.73547  0.42457  Biso   1.000  C
  H24      1.0000 0.60273  0.69847  0.41317  Biso   1.000  H
  C120     1.0000 0.60833  0.85117  0.34447  Biso   1.000  C
  S25      1.0000 0.76640  0.96170  0.64380  Biso   1.000  S
  O49      1.0000 0.03740  0.21990  0.84035  Biso   1.000  O
  O50      1.0000 0.07420  0.29550  0.79146  Biso   1.000  O
  N49      1.0000 0.78500  0.02400  0.61160  Biso   1.000  N
  N50      1.0000 0.79900  0.99100  0.68110  Biso   1.000  N
  C121     1.0000 0.02750  0.23620  0.80850  Biso   1.000  C
  C122     1.0000 0.94830  0.17710  0.79220  Biso   1.000  C
  C123     1.0000 0.77370  0.13270  0.69170  Biso   1.000  C
  C124     1.0000 0.93120  0.19040  0.75790  Biso   1.000  C
  H25      1.0000 0.96820  0.23760  0.74650  Biso   1.000  H
  C125     1.0000 0.81550  0.09050  0.67780  Biso   1.000  C
  S26      1.0000 0.43307  0.29503  0.97713  Biso   1.000  S
  O51      1.0000 0.70407  0.55323  0.17368  Biso   1.000  O
  O52      1.0000 0.74087  0.62883  0.12479  Biso   1.000  O
  N51      1.0000 0.45167  0.35733  0.94493  Biso   1.000  N
  N52      1.0000 0.46567  0.32433  0.01443  Biso   1.000  N
  C126     1.0000 0.69417  0.56953  0.14183  Biso   1.000  C
  C127     1.0000 0.61497  0.51043  0.12553  Biso   1.000  C
  C128     1.0000 0.44037  0.46603  0.02503  Biso   1.000  C
  C129     1.0000 0.59787  0.52373  0.09123  Biso   1.000  C
  H26      1.0000 0.63487  0.57093  0.07983  Biso   1.000  H
  C130     1.0000 0.48217  0.42383  0.01113  Biso   1.000  C
  S27      1.0000 0.09973  0.62837  0.31047  Biso   1.000  S
  O53      1.0000 0.37073  0.88657  0.50702  Biso   1.000  O
  O54      1.0000 0.40753  0.96217  0.45813  Biso   1.000  O
  N53      1.0000 0.11833  0.69067  0.27827  Biso   1.000  N
  N54      1.0000 0.13233  0.65767  0.34777  Biso   1.000  N
  C131     1.0000 0.36083  0.90287  0.47517  Biso   1.000  C
  C132     1.0000 0.28163  0.84377  0.45887  Biso   1.000  C
  C133     1.0000 0.10703  0.79937  0.35837  Biso   1.000  C
  C134     1.0000 0.26453  0.85707  0.42457  Biso   1.000  C
  H27      1.0000 0.30153  0.90427  0.41317  Biso   1.000  H
  C135     1.0000 0.14883  0.75717  0.34447  Biso   1.000  C
  S28      1.0000 0.80470  0.03830  0.35620  Biso   1.000  S
  O55      1.0000 0.81750  0.78010  0.15965  Biso   1.000  O
  O56      1.0000 0.77870  0.70450  0.20854  Biso   1.000  O
  N55      1.0000 0.76100  0.97600  0.38840  Biso   1.000  N
  N56      1.0000 0.80800  0.00900  0.31890  Biso   1.000  N
  C136     1.0000 0.79130  0.76380  0.19150  Biso   1.000  C
  C137     1.0000 0.77120  0.82290  0.20780  Biso   1.000  C
  C138     1.0000 0.64100  0.86730  0.30830  Biso   1.000  C
  C139     1.0000 0.74080  0.80960  0.24210  Biso   1.000  C
  H28      1.0000 0.73060  0.76240  0.25350  Biso   1.000  H
  C140     1.0000 0.72500  0.90950  0.32220  Biso   1.000  C
  S29      1.0000 0.47137  0.37163  0.68953  Biso   1.000  S
  O57      1.0000 0.48417  0.11343  0.49298  Biso   1.000  O
  O58      1.0000 0.44537  0.03783  0.54187  Biso   1.000  O
  N57      1.0000 0.42767  0.30933  0.72173  Biso   1.000  N
  N58      1.0000 0.47467  0.34233  0.65223  Biso   1.000  N
  C141     1.0000 0.45797  0.09713  0.52483  Biso   1.000  C
  C142     1.0000 0.43787  0.15623  0.54113  Biso   1.000  C
  C143     1.0000 0.30767  0.20063  0.64163  Biso   1.000  C
  C144     1.0000 0.40747  0.14293  0.57543  Biso   1.000  C
  H29      1.0000 0.39727  0.09573  0.58683  Biso   1.000  H
  C145     1.0000 0.39167  0.24283  0.65553  Biso   1.000  C
  S30      1.0000 0.13803  0.70497  0.02287  Biso   1.000  S
  O59      1.0000 0.15083  0.44677  0.82632  Biso   1.000  O
  O60      1.0000 0.11203  0.37117  0.87521  Biso   1.000  O
  N59      1.0000 0.09433  0.64267  0.05507  Biso   1.000  N
  N60      1.0000 0.14133  0.67567  0.98557  Biso   1.000  N
  C146     1.0000 0.12463  0.43047  0.85817  Biso   1.000  C
  C147     1.0000 0.10453  0.48957  0.87447  Biso   1.000  C
  C148     1.0000 0.97433  0.53397  0.97497  Biso   1.000  C
  C149     1.0000 0.07413  0.47627  0.90877  Biso   1.000  C
  H30      1.0000 0.06393  0.42907  0.92017  Biso   1.000  H
  C150     1.0000 0.05833  0.57617  0.98887  Biso   1.000  C
  S31      1.0000 0.23360  0.19530  0.35620  Biso   1.000  S
  O61      1.0000 0.96260  0.18250  0.15965  Biso   1.000  O
  O62      1.0000 0.92580  0.22130  0.20854  Biso   1.000  O
  N61      1.0000 0.21500  0.23900  0.38840  Biso   1.000  N
  N62      1.0000 0.20100  0.19200  0.31890  Biso   1.000  N
  C151     1.0000 0.97250  0.20870  0.19150  Biso   1.000  C
  C152     1.0000 0.05170  0.22880  0.20780  Biso   1.000  C
  C153     1.0000 0.22630  0.35900  0.30830  Biso   1.000  C
  C154     1.0000 0.06880  0.25920  0.24210  Biso   1.000  C
  H31      1.0000 0.03180  0.26940  0.25350  Biso   1.000  H
  C155     1.0000 0.18450  0.27500  0.32220  Biso   1.000  C
  S32      1.0000 0.90027  0.52863  0.68953  Biso   1.000  S
  O63      1.0000 0.62927  0.51583  0.49298  Biso   1.000  O
  O64      1.0000 0.59247  0.55463  0.54187  Biso   1.000  O
  N63      1.0000 0.88167  0.57233  0.72173  Biso   1.000  N
  N64      1.0000 0.86767  0.52533  0.65223  Biso   1.000  N
  C156     1.0000 0.63917  0.54203  0.52483  Biso   1.000  C
  C157     1.0000 0.71837  0.56213  0.54113  Biso   1.000  C
  C158     1.0000 0.89297  0.69233  0.64163  Biso   1.000  C
  C159     1.0000 0.73547  0.59253  0.57543  Biso   1.000  C
  H32      1.0000 0.69847  0.60273  0.58683  Biso   1.000  H
  C160     1.0000 0.85117  0.60833  0.65553  Biso   1.000  C
  S33      1.0000 0.56693  0.86197  0.02287  Biso   1.000  S
  O65      1.0000 0.29593  0.84917  0.82632  Biso   1.000  O
  O66      1.0000 0.25913  0.88797  0.87521  Biso   1.000  O
  N65      1.0000 0.54833  0.90567  0.05507  Biso   1.000  N
  N66      1.0000 0.53433  0.85867  0.98557  Biso   1.000  N
  C161     1.0000 0.30583  0.87537  0.85817  Biso   1.000  C
  C162     1.0000 0.38503  0.89547  0.87447  Biso   1.000  C
  C163     1.0000 0.55963  0.02567  0.97497  Biso   1.000  C
  C164     1.0000 0.40213  0.92587  0.90877  Biso   1.000  C
  H33      1.0000 0.36513  0.93607  0.92017  Biso   1.000  H
  C165     1.0000 0.51783  0.94167  0.98887  Biso   1.000  C
  S34      1.0000 0.96170  0.76640  0.35620  Biso   1.000  S
  O67      1.0000 0.21990  0.03740  0.15965  Biso   1.000  O
  O68      1.0000 0.29550  0.07420  0.20854  Biso   1.000  O
  N67      1.0000 0.02400  0.78500  0.38840  Biso   1.000  N
  N68      1.0000 0.99100  0.79900  0.31890  Biso   1.000  N
  C166     1.0000 0.23620  0.02750  0.19150  Biso   1.000  C
  C167     1.0000 0.17710  0.94830  0.20780  Biso   1.000  C
  C168     1.0000 0.13270  0.77370  0.30830  Biso   1.000  C
  C169     1.0000 0.19040  0.93120  0.24210  Biso   1.000  C
  H34      1.0000 0.23760  0.96820  0.25350  Biso   1.000  H
  C170     1.0000 0.09050  0.81550  0.32220  Biso   1.000  C
  S35      1.0000 0.62837  0.09973  0.68953  Biso   1.000  S
  O69      1.0000 0.88657  0.37073  0.49298  Biso   1.000  O
  O70      1.0000 0.96217  0.40753  0.54187  Biso   1.000  O
  N69      1.0000 0.69067  0.11833  0.72173  Biso   1.000  N
  N70      1.0000 0.65767  0.13233  0.65223  Biso   1.000  N
  C171     1.0000 0.90287  0.36083  0.52483  Biso   1.000  C
  C172     1.0000 0.84377  0.28163  0.54113  Biso   1.000  C
  C173     1.0000 0.79937  0.10703  0.64163  Biso   1.000  C
  C174     1.0000 0.85707  0.26453  0.57543  Biso   1.000  C
  H35      1.0000 0.90427  0.30153  0.58683  Biso   1.000  H
  C175     1.0000 0.75717  0.14883  0.65553  Biso   1.000  C
  S36      1.0000 0.29503  0.43307  0.02287  Biso   1.000  S
  O71      1.0000 0.55323  0.70407  0.82632  Biso   1.000  O
  O72      1.0000 0.62883  0.74087  0.87521  Biso   1.000  O
  N71      1.0000 0.35733  0.45167  0.05507  Biso   1.000  N
  N72      1.0000 0.32433  0.46567  0.98557  Biso   1.000  N
  C176     1.0000 0.56953  0.69417  0.85817  Biso   1.000  C
  C177     1.0000 0.51043  0.61497  0.87447  Biso   1.000  C
  C178     1.0000 0.46603  0.44037  0.97497  Biso   1.000  C
  C179     1.0000 0.52373  0.59787  0.90877  Biso   1.000  C
  H36      1.0000 0.57093  0.63487  0.92017  Biso   1.000  H
  C180     1.0000 0.42383  0.48217  0.98887  Biso   1.000  C
  Zn1      1.0000 0.28519  0.14260  0.13328  Biso   1.000  Zn
  O73      1.0000 0.23740  0.11870  0.08510  Biso   1.000  O
  Zn2      1.0000 0.95186  0.47593  0.46661  Biso   1.000  Zn
  O74      1.0000 0.90407  0.45203  0.41843  Biso   1.000  O
  Zn3      1.0000 0.61852  0.80926  0.79995  Biso   1.000  Zn
  O75      1.0000 0.57073  0.78537  0.75177  Biso   1.000  O
  Zn4      1.0000 0.85740  0.14260  0.13328  Biso   1.000  Zn
  O76      1.0000 0.88130  0.11870  0.08510  Biso   1.000  O
  Zn5      1.0000 0.52407  0.47593  0.46661  Biso   1.000  Zn
  O77      1.0000 0.54797  0.45203  0.41843  Biso   1.000  O
  Zn6      1.0000 0.19074  0.80926  0.79995  Biso   1.000  Zn
  O78      1.0000 0.21463  0.78537  0.75177  Biso   1.000  O
  Zn7      1.0000 0.85740  0.71481  0.13328  Biso   1.000  Zn
  O79      1.0000 0.88130  0.76260  0.08510  Biso   1.000  O
  Zn8      1.0000 0.52407  0.04814  0.46661  Biso   1.000  Zn
  O80      1.0000 0.54797  0.09593  0.41843  Biso   1.000  O
  Zn9      1.0000 0.19074  0.38148  0.79995  Biso   1.000  Zn
  O81      1.0000 0.21463  0.42927  0.75177  Biso   1.000  O
  Zn10     1.0000 0.14260  0.28519  0.86672  Biso   1.000  Zn
  O82      1.0000 0.11870  0.23740  0.91490  Biso   1.000  O
  Zn11     1.0000 0.80926  0.61852  0.20005  Biso   1.000  Zn
  O83      1.0000 0.78537  0.57073  0.24823  Biso   1.000  O
  Zn12     1.0000 0.47593  0.95186  0.53339  Biso   1.000  Zn
  O84      1.0000 0.45203  0.90407  0.58157  Biso   1.000  O
  Zn13     1.0000 0.14260  0.85740  0.86672  Biso   1.000  Zn
  O85      1.0000 0.11870  0.88130  0.91490  Biso   1.000  O
  Zn14     1.0000 0.80926  0.19074  0.20005  Biso   1.000  Zn
  O86      1.0000 0.78537  0.21463  0.24823  Biso   1.000  O
  Zn15     1.0000 0.47593  0.52407  0.53339  Biso   1.000  Zn
  O87      1.0000 0.45203  0.54797  0.58157  Biso   1.000  O
  Zn16     1.0000 0.71481  0.85740  0.86672  Biso   1.000  Zn
  O88      1.0000 0.76260  0.88130  0.91490  Biso   1.000  O
  Zn17     1.0000 0.38148  0.19074  0.20005  Biso   1.000  Zn
  O89      1.0000 0.42927  0.21463  0.24823  Biso   1.000  O
  Zn18     1.0000 0.04814  0.52407  0.53339  Biso   1.000  Zn
  O90      1.0000 0.09593  0.54797  0.58157  Biso   1.000  O
  C181     1.0000 0.10810  0.21620  0.19060  Biso   1.000  C
  H37      1.0000 0.09955  0.19910  0.16710  Biso   1.000  H
  C182     1.0000 0.15160  0.30320  0.29710  Biso   1.000  C
  C183     1.0000 0.13750  0.27500  0.26010  Biso   1.000  C
  C184     1.0000 0.77477  0.54953  0.52393  Biso   1.000  C
  H38      1.0000 0.76622  0.53243  0.50043  Biso   1.000  H
  C185     1.0000 0.81827  0.63653  0.63043  Biso   1.000  C
  C186     1.0000 0.80417  0.60833  0.59343  Biso   1.000  C
  C187     1.0000 0.44143  0.88287  0.85727  Biso   1.000  C
  H39      1.0000 0.43288  0.86577  0.83377  Biso   1.000  H
  C188     1.0000 0.48493  0.96987  0.96377  Biso   1.000  C
  C189     1.0000 0.47083  0.94167  0.92677  Biso   1.000  C
  C190     1.0000 0.78380  0.89190  0.19060  Biso   1.000  C
  H40      1.0000 0.80090  0.90045  0.16710  Biso   1.000  H
  C191     1.0000 0.69680  0.84840  0.29710  Biso   1.000  C
  C192     1.0000 0.72500  0.86250  0.26010  Biso   1.000  C
  C193     1.0000 0.45047  0.22523  0.52393  Biso   1.000  C
  H41      1.0000 0.46757  0.23378  0.50043  Biso   1.000  H
  C194     1.0000 0.36347  0.18173  0.63043  Biso   1.000  C
  C195     1.0000 0.39167  0.19583  0.59343  Biso   1.000  C
  C196     1.0000 0.11713  0.55857  0.85727  Biso   1.000  C
  H42      1.0000 0.13423  0.56712  0.83377  Biso   1.000  H
  C197     1.0000 0.03013  0.51507  0.96377  Biso   1.000  C
  C198     1.0000 0.05833  0.52917  0.92677  Biso   1.000  C
  C199     1.0000 0.10810  0.89190  0.19060  Biso   1.000  C
  H43      1.0000 0.09955  0.90045  0.16710  Biso   1.000  H
  C200     1.0000 0.15160  0.84840  0.29710  Biso   1.000  C
  C201     1.0000 0.13750  0.86250  0.26010  Biso   1.000  C
  C202     1.0000 0.77477  0.22523  0.52393  Biso   1.000  C
  H44      1.0000 0.76622  0.23378  0.50043  Biso   1.000  H
  C203     1.0000 0.81827  0.18173  0.63043  Biso   1.000  C
  C204     1.0000 0.80417  0.19583  0.59343  Biso   1.000  C
  C205     1.0000 0.44143  0.55857  0.85727  Biso   1.000  C
  H45      1.0000 0.43288  0.56712  0.83377  Biso   1.000  H
  C206     1.0000 0.48493  0.51507  0.96377  Biso   1.000  C
  C207     1.0000 0.47083  0.52917  0.92677  Biso   1.000  C
  C208     1.0000 0.21620  0.10810  0.80940  Biso   1.000  C
  H46      1.0000 0.19910  0.09955  0.83290  Biso   1.000  H
  C209     1.0000 0.30320  0.15160  0.70290  Biso   1.000  C
  C210     1.0000 0.27500  0.13750  0.73990  Biso   1.000  C
  C211     1.0000 0.88287  0.44143  0.14273  Biso   1.000  C
  H47      1.0000 0.86577  0.43288  0.16623  Biso   1.000  H
  C212     1.0000 0.96987  0.48493  0.03623  Biso   1.000  C
  C213     1.0000 0.94167  0.47083  0.07323  Biso   1.000  C
  C214     1.0000 0.54953  0.77477  0.47607  Biso   1.000  C
  H48      1.0000 0.53243  0.76622  0.49957  Biso   1.000  H
  C215     1.0000 0.63653  0.81827  0.36957  Biso   1.000  C
  C216     1.0000 0.60833  0.80417  0.40657  Biso   1.000  C
  C217     1.0000 0.89190  0.78380  0.80940  Biso   1.000  C
  H49      1.0000 0.90045  0.80090  0.83290  Biso   1.000  H
  C218     1.0000 0.84840  0.69680  0.70290  Biso   1.000  C
  C219     1.0000 0.86250  0.72500  0.73990  Biso   1.000  C
  C220     1.0000 0.55857  0.11713  0.14273  Biso   1.000  C
  H50      1.0000 0.56712  0.13423  0.16623  Biso   1.000  H
  C221     1.0000 0.51507  0.03013  0.03623  Biso   1.000  C
  C222     1.0000 0.52917  0.05833  0.07323  Biso   1.000  C
  C223     1.0000 0.22523  0.45047  0.47607  Biso   1.000  C
  H51      1.0000 0.23378  0.46757  0.49957  Biso   1.000  H
  C224     1.0000 0.18173  0.36347  0.36957  Biso   1.000  C
  C225     1.0000 0.19583  0.39167  0.40657  Biso   1.000  C
  C226     1.0000 0.89190  0.10810  0.80940  Biso   1.000  C
  H52      1.0000 0.90045  0.09955  0.83290  Biso   1.000  H
  C227     1.0000 0.84840  0.15160  0.70290  Biso   1.000  C
  C228     1.0000 0.86250  0.13750  0.73990  Biso   1.000  C
  C229     1.0000 0.55857  0.44143  0.14273  Biso   1.000  C
  H53      1.0000 0.56712  0.43288  0.16623  Biso   1.000  H
  C230     1.0000 0.51507  0.48493  0.03623  Biso   1.000  C
  C231     1.0000 0.52917  0.47083  0.07323  Biso   1.000  C
  C232     1.0000 0.22523  0.77477  0.47607  Biso   1.000  C
  H54      1.0000 0.23378  0.76622  0.49957  Biso   1.000  H
  C233     1.0000 0.18173  0.81827  0.36957  Biso   1.000  C
  C234     1.0000 0.19583  0.80417  0.40657  Biso   1.000  C
