data_image0
_cell_length_a       10.456
_cell_length_b       20.017
_cell_length_c       8.1077
_cell_angle_alpha    90
_cell_angle_beta     102.602
_cell_angle_gamma    90

_symmetry_space_group_name_H-M    "P 1"
_symmetry_int_tables_number       1

loop_
  _symmetry_equiv_pos_as_xyz
  'x, y, z'

loop_
  _atom_site_label
  _atom_site_occupancy
  _atom_site_fract_x
  _atom_site_fract_y
  _atom_site_fract_z
  _atom_site_thermal_displace_type
  _atom_site_B_iso_or_equiv
  _atom_site_type_symbol
  N1       1.0000 0.65150  0.15722  0.99050  Biso   1.000  N
  C1       1.0000 0.71000  0.10032  0.94460  Biso   1.000  C
  H1       1.0000 0.79000  0.10320  0.91280  Biso   1.000  H
  C2       1.0000 0.65160  0.04173  0.94610  Biso   1.000  C
  H2       1.0000 0.69170  0.00420  0.91260  Biso   1.000  H
  C3       1.0000 0.53170  0.03355  0.99600  Biso   1.000  C
  C4       1.0000 0.47530  0.09380  0.04500  Biso   1.000  C
  H3       1.0000 0.39610  0.09190  0.07920  Biso   1.000  H
  C5       1.0000 0.53470  0.15210  0.04210  Biso   1.000  C
  H4       1.0000 0.49680  0.19040  0.07550  Biso   1.000  H
  C6       1.0000 0.68720  0.27540  0.36790  Biso   1.000  C
  H5       1.0000 0.73760  0.24290  0.43400  Biso   1.000  H
  O1       1.0000 0.91360  0.20160  0.14660  Biso   1.000  O
  O2       1.0000 0.68240  0.27770  0.21560  Biso   1.000  O
  O3       1.0000 0.62550  0.31600  0.43320  Biso   1.000  O
  N2       1.0000 0.15150  0.65722  0.99050  Biso   1.000  N
  C7       1.0000 0.21000  0.60032  0.94460  Biso   1.000  C
  H6       1.0000 0.29000  0.60320  0.91280  Biso   1.000  H
  C8       1.0000 0.15160  0.54173  0.94610  Biso   1.000  C
  H7       1.0000 0.19170  0.50420  0.91260  Biso   1.000  H
  C9       1.0000 0.03170  0.53355  0.99600  Biso   1.000  C
  C10      1.0000 0.97530  0.59380  0.04500  Biso   1.000  C
  H8       1.0000 0.89610  0.59190  0.07920  Biso   1.000  H
  C11      1.0000 0.03470  0.65210  0.04210  Biso   1.000  C
  H9       1.0000 0.99680  0.69040  0.07550  Biso   1.000  H
  C12      1.0000 0.18720  0.77540  0.36790  Biso   1.000  C
  H10      1.0000 0.23760  0.74290  0.43400  Biso   1.000  H
  O4       1.0000 0.41360  0.70160  0.14660  Biso   1.000  O
  O5       1.0000 0.18240  0.77770  0.21560  Biso   1.000  O
  O6       1.0000 0.12550  0.81600  0.43320  Biso   1.000  O
  N3       1.0000 0.34850  0.15722  0.50950  Biso   1.000  N
  C13      1.0000 0.29000  0.10032  0.55540  Biso   1.000  C
  H11      1.0000 0.21000  0.10320  0.58720  Biso   1.000  H
  C14      1.0000 0.34840  0.04173  0.55390  Biso   1.000  C
  H12      1.0000 0.30830  0.00420  0.58740  Biso   1.000  H
  C15      1.0000 0.46830  0.03355  0.50400  Biso   1.000  C
  C16      1.0000 0.52470  0.09380  0.45500  Biso   1.000  C
  H13      1.0000 0.60390  0.09190  0.42080  Biso   1.000  H
  C17      1.0000 0.46530  0.15210  0.45790  Biso   1.000  C
  H14      1.0000 0.50320  0.19040  0.42450  Biso   1.000  H
  C18      1.0000 0.31280  0.27540  0.13210  Biso   1.000  C
  H15      1.0000 0.26240  0.24290  0.06600  Biso   1.000  H
  O7       1.0000 0.08640  0.20160  0.35340  Biso   1.000  O
  O8       1.0000 0.31760  0.27770  0.28440  Biso   1.000  O
  O9       1.0000 0.37450  0.31600  0.06680  Biso   1.000  O
  N4       1.0000 0.84850  0.65722  0.50950  Biso   1.000  N
  C19      1.0000 0.79000  0.60032  0.55540  Biso   1.000  C
  H16      1.0000 0.71000  0.60320  0.58720  Biso   1.000  H
  C20      1.0000 0.84840  0.54173  0.55390  Biso   1.000  C
  H17      1.0000 0.80830  0.50420  0.58740  Biso   1.000  H
  C21      1.0000 0.96830  0.53355  0.50400  Biso   1.000  C
  C22      1.0000 0.02470  0.59380  0.45500  Biso   1.000  C
  H18      1.0000 0.10390  0.59190  0.42080  Biso   1.000  H
  C23      1.0000 0.96530  0.65210  0.45790  Biso   1.000  C
  H19      1.0000 0.00320  0.69040  0.42450  Biso   1.000  H
  C24      1.0000 0.81280  0.77540  0.13210  Biso   1.000  C
  H20      1.0000 0.76240  0.74290  0.06600  Biso   1.000  H
  O10      1.0000 0.58640  0.70160  0.35340  Biso   1.000  O
  O11      1.0000 0.81760  0.77770  0.28440  Biso   1.000  O
  O12      1.0000 0.87450  0.81600  0.06680  Biso   1.000  O
  N5       1.0000 0.34850  0.84278  0.00950  Biso   1.000  N
  C25      1.0000 0.29000  0.89968  0.05540  Biso   1.000  C
  H21      1.0000 0.21000  0.89680  0.08720  Biso   1.000  H
  C26      1.0000 0.34840  0.95827  0.05390  Biso   1.000  C
  H22      1.0000 0.30830  0.99580  0.08740  Biso   1.000  H
  C27      1.0000 0.46830  0.96645  0.00400  Biso   1.000  C
  C28      1.0000 0.52470  0.90620  0.95500  Biso   1.000  C
  H23      1.0000 0.60390  0.90810  0.92080  Biso   1.000  H
  C29      1.0000 0.46530  0.84790  0.95790  Biso   1.000  C
  H24      1.0000 0.50320  0.80960  0.92450  Biso   1.000  H
  C30      1.0000 0.31280  0.72460  0.63210  Biso   1.000  C
  H25      1.0000 0.26240  0.75710  0.56600  Biso   1.000  H
  O13      1.0000 0.08640  0.79840  0.85340  Biso   1.000  O
  O14      1.0000 0.31760  0.72230  0.78440  Biso   1.000  O
  O15      1.0000 0.37450  0.68400  0.56680  Biso   1.000  O
  N6       1.0000 0.84850  0.34278  0.00950  Biso   1.000  N
  C31      1.0000 0.79000  0.39968  0.05540  Biso   1.000  C
  H26      1.0000 0.71000  0.39680  0.08720  Biso   1.000  H
  C32      1.0000 0.84840  0.45827  0.05390  Biso   1.000  C
  H27      1.0000 0.80830  0.49580  0.08740  Biso   1.000  H
  C33      1.0000 0.96830  0.46645  0.00400  Biso   1.000  C
  C34      1.0000 0.02470  0.40620  0.95500  Biso   1.000  C
  H28      1.0000 0.10390  0.40810  0.92080  Biso   1.000  H
  C35      1.0000 0.96530  0.34790  0.95790  Biso   1.000  C
  H29      1.0000 0.00320  0.30960  0.92450  Biso   1.000  H
  C36      1.0000 0.81280  0.22460  0.63210  Biso   1.000  C
  H30      1.0000 0.76240  0.25710  0.56600  Biso   1.000  H
  O16      1.0000 0.58640  0.29840  0.85340  Biso   1.000  O
  O17      1.0000 0.81760  0.22230  0.78440  Biso   1.000  O
  O18      1.0000 0.87450  0.18400  0.56680  Biso   1.000  O
  N7       1.0000 0.65150  0.84278  0.49050  Biso   1.000  N
  C37      1.0000 0.71000  0.89968  0.44460  Biso   1.000  C
  H31      1.0000 0.79000  0.89680  0.41280  Biso   1.000  H
  C38      1.0000 0.65160  0.95827  0.44610  Biso   1.000  C
  H32      1.0000 0.69170  0.99580  0.41260  Biso   1.000  H
  C39      1.0000 0.53170  0.96645  0.49600  Biso   1.000  C
  C40      1.0000 0.47530  0.90620  0.54500  Biso   1.000  C
  H33      1.0000 0.39610  0.90810  0.57920  Biso   1.000  H
  C41      1.0000 0.53470  0.84790  0.54210  Biso   1.000  C
  H34      1.0000 0.49680  0.80960  0.57550  Biso   1.000  H
  C42      1.0000 0.68720  0.72460  0.86790  Biso   1.000  C
  H35      1.0000 0.73760  0.75710  0.93400  Biso   1.000  H
  O19      1.0000 0.91360  0.79840  0.64660  Biso   1.000  O
  O20      1.0000 0.68240  0.72230  0.71560  Biso   1.000  O
  O21      1.0000 0.62550  0.68400  0.93320  Biso   1.000  O
  N8       1.0000 0.15150  0.34278  0.49050  Biso   1.000  N
  C43      1.0000 0.21000  0.39968  0.44460  Biso   1.000  C
  H36      1.0000 0.29000  0.39680  0.41280  Biso   1.000  H
  C44      1.0000 0.15160  0.45827  0.44610  Biso   1.000  C
  H37      1.0000 0.19170  0.49580  0.41260  Biso   1.000  H
  C45      1.0000 0.03170  0.46645  0.49600  Biso   1.000  C
  C46      1.0000 0.97530  0.40620  0.54500  Biso   1.000  C
  H38      1.0000 0.89610  0.40810  0.57920  Biso   1.000  H
  C47      1.0000 0.03470  0.34790  0.54210  Biso   1.000  C
  H39      1.0000 0.99680  0.30960  0.57550  Biso   1.000  H
  C48      1.0000 0.18720  0.22460  0.86790  Biso   1.000  C
  H40      1.0000 0.23760  0.25710  0.93400  Biso   1.000  H
  O22      1.0000 0.41360  0.29840  0.64660  Biso   1.000  O
  O23      1.0000 0.18240  0.22230  0.71560  Biso   1.000  O
  O24      1.0000 0.12550  0.18400  0.93320  Biso   1.000  O
  C49      1.0000 0.00000  0.23200  0.25000  Biso   1.000  C
  H41      1.0000 0.00000  0.27840  0.25000  Biso   1.000  H
  C50      1.0000 0.50000  0.73200  0.25000  Biso   1.000  C
  H42      1.0000 0.50000  0.77840  0.25000  Biso   1.000  H
  C51      1.0000 0.00000  0.76800  0.75000  Biso   1.000  C
  H43      1.0000 0.00000  0.72160  0.75000  Biso   1.000  H
  C52      1.0000 0.50000  0.26800  0.75000  Biso   1.000  C
  H44      1.0000 0.50000  0.22160  0.75000  Biso   1.000  H
  Ni1      1.0000 0.75000  0.25000  0.00000  Biso   1.000  Ni
  Ni2      1.0000 0.25000  0.25000  0.50000  Biso   1.000  Ni
  Ni3      1.0000 0.25000  0.75000  0.00000  Biso   1.000  Ni
  Ni4      1.0000 0.75000  0.75000  0.50000  Biso   1.000  Ni
