data_image0
_cell_length_a       13.009
_cell_length_b       13.7701
_cell_length_c       15.0439
_cell_angle_alpha    99.513
_cell_angle_beta     90.402
_cell_angle_gamma    116.522

_symmetry_space_group_name_H-M    "P 1"
_symmetry_int_tables_number       1

loop_
  _symmetry_equiv_pos_as_xyz
  'x, y, z'

loop_
  _atom_site_label
  _atom_site_occupancy
  _atom_site_fract_x
  _atom_site_fract_y
  _atom_site_fract_z
  _atom_site_thermal_displace_type
  _atom_site_B_iso_or_equiv
  _atom_site_type_symbol
  C1       1.0000 0.22300  0.73500  0.73700  Biso   1.000  C
  H1       1.0000 0.22640  0.68080  0.69010  Biso   1.000  H
  H2       1.0000 0.29240  0.80330  0.74210  Biso   1.000  H
  H3       1.0000 0.15770  0.74690  0.72320  Biso   1.000  H
  C2       1.0000 0.27900  0.78600  0.77600  Biso   1.000  C
  H4       1.0000 0.23550  0.82460  0.76500  Biso   1.000  H
  H5       1.0000 0.29710  0.75640  0.71930  Biso   1.000  H
  H6       1.0000 0.34960  0.83700  0.81250  Biso   1.000  H
  C3       1.0000 0.23800  0.60500  0.81400  Biso   1.000  C
  H7       1.0000 0.17530  0.54290  0.83070  Biso   1.000  H
  H8       1.0000 0.30660  0.62580  0.85290  Biso   1.000  H
  H9       1.0000 0.25180  0.58680  0.75240  Biso   1.000  H
  C4       1.0000 0.14520  0.70950  0.88310  Biso   1.000  C
  H10      1.0000 0.12170  0.66020  0.92300  Biso   1.000  H
  C5       1.0000 0.77600  0.65500  0.64680  Biso   1.000  C
  H11      1.0000 0.75790  0.59020  0.67270  Biso   1.000  H
  H12      1.0000 0.74910  0.63240  0.58370  Biso   1.000  H
  H13      1.0000 0.73910  0.69570  0.67730  Biso   1.000  H
  C6       1.0000 0.96940  0.73490  0.57800  Biso   1.000  C
  H14      1.0000 0.04760  0.78940  0.59670  Biso   1.000  H
  H15      1.0000 0.93750  0.75760  0.53240  Biso   1.000  H
  H16      1.0000 0.96800  0.66530  0.55360  Biso   1.000  H
  C7       1.0000 0.95160  0.77060  0.73790  Biso   1.000  C
  H17      1.0000 0.03140  0.81180  0.74210  Biso   1.000  H
  C8       1.0000 0.13670  0.07460  0.86700  Biso   1.000  C
  C9       1.0000 0.23760  0.12540  0.81010  Biso   1.000  C
  C10      1.0000 0.30690  0.23970  0.82910  Biso   1.000  C
  H18      1.0000 0.28980  0.28390  0.87410  Biso   1.000  H
  C11      1.0000 0.39970  0.28620  0.78120  Biso   1.000  C
  C12      1.0000 0.42090  0.22080  0.70880  Biso   1.000  C
  H19      1.0000 0.48360  0.25330  0.67590  Biso   1.000  H
  C13      1.0000 0.34880  0.10760  0.68600  Biso   1.000  C
  C14      1.0000 0.25660  0.06020  0.74050  Biso   1.000  C
  H20      1.0000 0.20920  0.98430  0.72850  Biso   1.000  H
  C15      1.0000 0.36430  0.03460  0.60860  Biso   1.000  C
  C16      1.0000 0.44930  0.46580  0.86220  Biso   1.000  C
  H21      1.0000 0.45090  0.44480  0.92040  Biso   1.000  H
  H22      1.0000 0.37290  0.45810  0.84760  Biso   1.000  H
  C17      1.0000 0.53820  0.58290  0.86570  Biso   1.000  C
  H23      1.0000 0.53560  0.62970  0.92050  Biso   1.000  H
  H24      1.0000 0.61470  0.58740  0.86520  Biso   1.000  H
  C18      1.0000 0.57510  0.72710  0.78360  Biso   1.000  C
  C19      1.0000 0.54140  0.76680  0.71550  Biso   1.000  C
  H25      1.0000 0.47780  0.71840  0.67500  Biso   1.000  H
  C20      1.0000 0.59980  0.87680  0.70620  Biso   1.000  C
  C21      1.0000 0.69440  0.94950  0.76920  Biso   1.000  C
  H26      1.0000 0.73310  0.02400  0.76570  Biso   1.000  H
  C22      1.0000 0.73030  0.91030  0.83710  Biso   1.000  C
  C23      1.0000 0.67300  0.79900  0.84280  Biso   1.000  C
  H27      1.0000 0.69980  0.77240  0.88580  Biso   1.000  H
  C24      1.0000 0.82910  0.98670  0.90440  Biso   1.000  C
  C25      1.0000 0.56210  0.92200  0.63810  Biso   1.000  C
  C26      1.0000 0.02600  0.97180  0.34680  Biso   1.000  C
  H28      1.0000 0.07920  0.02490  0.31440  Biso   1.000  H
  H29      1.0000 0.03050  0.00650  0.40850  Biso   1.000  H
  H30      1.0000 0.94920  0.94350  0.31900  Biso   1.000  H
  C27      1.0000 0.00990  0.78920  0.26390  Biso   1.000  C
  H31      1.0000 0.93170  0.77160  0.24590  Biso   1.000  H
  H32      1.0000 0.01250  0.72550  0.27960  Biso   1.000  H
  H33      1.0000 0.05650  0.81130  0.21480  Biso   1.000  H
  C28      1.0000 0.12810  0.88800  0.40920  Biso   1.000  C
  H34      1.0000 0.15670  0.94900  0.45620  Biso   1.000  H
  C29      1.0000 0.10600  0.59600  0.12810  Biso   1.000  C
  H35      1.0000 0.11290  0.66260  0.11030  Biso   1.000  H
  H36      1.0000 0.03160  0.55810  0.14920  Biso   1.000  H
  H37      1.0000 0.11530  0.54950  0.07720  Biso   1.000  H
  C30      1.0000 0.21400  0.53200  0.23000  Biso   1.000  C
  H38      1.0000 0.27370  0.52290  0.19770  Biso   1.000  H
  H39      1.0000 0.14320  0.46520  0.21560  Biso   1.000  H
  H40      1.0000 0.23600  0.54850  0.29400  Biso   1.000  H
  C31      1.0000 0.25130  0.72070  0.25160  Biso   1.000  C
  H41      1.0000 0.23750  0.77620  0.23480  Biso   1.000  H
  N1       1.0000 0.84370  0.63610  0.00690  Biso   1.000  N
  N2       1.0000 0.21120  0.69620  0.82360  Biso   1.000  N
  N3       1.0000 0.89990  0.72320  0.65700  Biso   1.000  N
  N4       1.0000 0.05550  0.88240  0.34460  Biso   1.000  N
  N5       1.0000 0.19870  0.62590  0.20320  Biso   1.000  N
  N6       1.0000 0.27720  0.63660  0.51200  Biso   1.000  N
  O1       1.0000 0.95270  0.68280  0.02450  Biso   1.000  O
  O2       1.0000 0.80400  0.67870  0.95730  Biso   1.000  O
  O3       1.0000 0.78320  0.55440  0.03650  Biso   1.000  O
  O4       1.0000 0.11010  0.77790  0.89340  Biso   1.000  O
  O5       1.0000 0.90560  0.76640  0.80980  Biso   1.000  O
  O6       1.0000 0.10370  0.97450  0.87120  Biso   1.000  O
  O7       1.0000 0.09790  0.13610  0.90630  Biso   1.000  O
  O8       1.0000 0.47480  0.39740  0.79490  Biso   1.000  O
  O9       1.0000 0.51210  0.61840  0.78700  Biso   1.000  O
  O10      1.0000 0.88680  0.95110  0.94260  Biso   1.000  O
  O11      1.0000 0.85090  0.08870  0.92460  Biso   1.000  O
  O12      1.0000 0.62980  0.01500  0.62450  Biso   1.000  O
  O13      1.0000 0.46010  0.86230  0.59770  Biso   1.000  O
  O14      1.0000 0.28590  0.93900  0.58300  Biso   1.000  O
  O15      1.0000 0.45400  0.07320  0.56810  Biso   1.000  O
  O16      1.0000 0.22060  0.69290  0.52180  Biso   1.000  O
  O17      1.0000 0.36310  0.67140  0.46840  Biso   1.000  O
  O18      1.0000 0.24020  0.54840  0.53750  Biso   1.000  O
  O19      1.0000 0.31910  0.74730  0.31900  Biso   1.000  O
  O20      1.0000 0.16110  0.81330  0.41030  Biso   1.000  O
  Tb1      1.0000 0.99092  0.85127  0.96030  Biso   1.000  Tb
  Tb2      1.0000 0.35606  0.85596  0.46486  Biso   1.000  Tb
  C32      1.0000 0.77700  0.26500  0.26300  Biso   1.000  C
  H42      1.0000 0.77360  0.31920  0.30990  Biso   1.000  H
  H43      1.0000 0.70760  0.19670  0.25790  Biso   1.000  H
  H44      1.0000 0.84230  0.25310  0.27680  Biso   1.000  H
  C33      1.0000 0.72100  0.21400  0.22400  Biso   1.000  C
  H45      1.0000 0.76450  0.17540  0.23500  Biso   1.000  H
  H46      1.0000 0.70290  0.24360  0.28070  Biso   1.000  H
  H47      1.0000 0.65040  0.16300  0.18750  Biso   1.000  H
  C34      1.0000 0.76200  0.39500  0.18600  Biso   1.000  C
  H48      1.0000 0.82470  0.45710  0.16930  Biso   1.000  H
  H49      1.0000 0.69340  0.37420  0.14710  Biso   1.000  H
  H50      1.0000 0.74820  0.41320  0.24760  Biso   1.000  H
  C35      1.0000 0.85480  0.29050  0.11690  Biso   1.000  C
  H51      1.0000 0.87830  0.33980  0.07700  Biso   1.000  H
  C36      1.0000 0.22400  0.34500  0.35320  Biso   1.000  C
  H52      1.0000 0.24210  0.40980  0.32730  Biso   1.000  H
  H53      1.0000 0.25090  0.36760  0.41630  Biso   1.000  H
  H54      1.0000 0.26090  0.30430  0.32270  Biso   1.000  H
  C37      1.0000 0.03060  0.26510  0.42200  Biso   1.000  C
  H55      1.0000 0.95240  0.21060  0.40330  Biso   1.000  H
  H56      1.0000 0.06250  0.24240  0.46760  Biso   1.000  H
  H57      1.0000 0.03200  0.33470  0.44640  Biso   1.000  H
  C38      1.0000 0.04840  0.22940  0.26210  Biso   1.000  C
  H58      1.0000 0.96860  0.18820  0.25790  Biso   1.000  H
  C39      1.0000 0.86330  0.92540  0.13300  Biso   1.000  C
  C40      1.0000 0.76240  0.87460  0.18990  Biso   1.000  C
  C41      1.0000 0.69310  0.76030  0.17090  Biso   1.000  C
  H59      1.0000 0.71020  0.71610  0.12590  Biso   1.000  H
  C42      1.0000 0.60030  0.71380  0.21880  Biso   1.000  C
  C43      1.0000 0.57910  0.77920  0.29120  Biso   1.000  C
  H60      1.0000 0.51640  0.74670  0.32410  Biso   1.000  H
  C44      1.0000 0.65120  0.89240  0.31400  Biso   1.000  C
  C45      1.0000 0.74340  0.93980  0.25950  Biso   1.000  C
  H61      1.0000 0.79080  0.01570  0.27150  Biso   1.000  H
  C46      1.0000 0.63570  0.96540  0.39140  Biso   1.000  C
  C47      1.0000 0.55070  0.53420  0.13780  Biso   1.000  C
  H62      1.0000 0.54910  0.55520  0.07960  Biso   1.000  H
  H63      1.0000 0.62710  0.54190  0.15240  Biso   1.000  H
  C48      1.0000 0.46180  0.41710  0.13430  Biso   1.000  C
  H64      1.0000 0.46440  0.37030  0.07950  Biso   1.000  H
  H65      1.0000 0.38530  0.41260  0.13480  Biso   1.000  H
  C49      1.0000 0.42490  0.27290  0.21640  Biso   1.000  C
  C50      1.0000 0.45860  0.23320  0.28450  Biso   1.000  C
  H66      1.0000 0.52220  0.28160  0.32500  Biso   1.000  H
  C51      1.0000 0.40020  0.12320  0.29380  Biso   1.000  C
  C52      1.0000 0.30560  0.05050  0.23080  Biso   1.000  C
  H67      1.0000 0.26690  0.97600  0.23430  Biso   1.000  H
  C53      1.0000 0.26970  0.08970  0.16290  Biso   1.000  C
  C54      1.0000 0.32700  0.20100  0.15720  Biso   1.000  C
  H68      1.0000 0.30020  0.22760  0.11420  Biso   1.000  H
  C55      1.0000 0.17090  0.01330  0.09560  Biso   1.000  C
  C56      1.0000 0.43790  0.07800  0.36190  Biso   1.000  C
  C57      1.0000 0.97400  0.02820  0.65320  Biso   1.000  C
  H69      1.0000 0.92080  0.97510  0.68560  Biso   1.000  H
  H70      1.0000 0.96950  0.99350  0.59150  Biso   1.000  H
  H71      1.0000 0.05080  0.05650  0.68100  Biso   1.000  H
  C58      1.0000 0.99010  0.21080  0.73610  Biso   1.000  C
  H72      1.0000 0.06830  0.22840  0.75410  Biso   1.000  H
  H73      1.0000 0.98750  0.27450  0.72040  Biso   1.000  H
  H74      1.0000 0.94350  0.18870  0.78520  Biso   1.000  H
  C59      1.0000 0.87190  0.11200  0.59080  Biso   1.000  C
  H75      1.0000 0.84330  0.05100  0.54380  Biso   1.000  H
  C60      1.0000 0.89400  0.40400  0.87190  Biso   1.000  C
  H76      1.0000 0.88710  0.33740  0.88970  Biso   1.000  H
  H77      1.0000 0.96840  0.44190  0.85080  Biso   1.000  H
  H78      1.0000 0.88470  0.45050  0.92280  Biso   1.000  H
  C61      1.0000 0.78600  0.46800  0.77000  Biso   1.000  C
  H79      1.0000 0.72630  0.47710  0.80230  Biso   1.000  H
  H80      1.0000 0.85680  0.53480  0.78440  Biso   1.000  H
  H81      1.0000 0.76400  0.45150  0.70600  Biso   1.000  H
  C62      1.0000 0.74870  0.27930  0.74840  Biso   1.000  C
  H82      1.0000 0.76250  0.22380  0.76520  Biso   1.000  H
  N7       1.0000 0.15630  0.36390  0.99310  Biso   1.000  N
  N8       1.0000 0.78880  0.30380  0.17640  Biso   1.000  N
  N9       1.0000 0.10010  0.27680  0.34300  Biso   1.000  N
  N10      1.0000 0.94450  0.11760  0.65540  Biso   1.000  N
  N11      1.0000 0.80130  0.37410  0.79680  Biso   1.000  N
  N12      1.0000 0.72280  0.36340  0.48800  Biso   1.000  N
  O21      1.0000 0.04730  0.31720  0.97550  Biso   1.000  O
  O22      1.0000 0.19600  0.32130  0.04270  Biso   1.000  O
  O23      1.0000 0.21680  0.44560  0.96350  Biso   1.000  O
  O24      1.0000 0.88990  0.22210  0.10660  Biso   1.000  O
  O25      1.0000 0.09440  0.23360  0.19020  Biso   1.000  O
  O26      1.0000 0.89630  0.02550  0.12880  Biso   1.000  O
  O27      1.0000 0.90210  0.86390  0.09370  Biso   1.000  O
  O28      1.0000 0.52520  0.60260  0.20510  Biso   1.000  O
  O29      1.0000 0.48790  0.38160  0.21300  Biso   1.000  O
  O30      1.0000 0.11320  0.04890  0.05740  Biso   1.000  O
  O31      1.0000 0.14910  0.91130  0.07540  Biso   1.000  O
  O32      1.0000 0.37020  0.98500  0.37550  Biso   1.000  O
  O33      1.0000 0.53990  0.13770  0.40230  Biso   1.000  O
  O34      1.0000 0.71410  0.06100  0.41700  Biso   1.000  O
  O35      1.0000 0.54600  0.92680  0.43190  Biso   1.000  O
  O36      1.0000 0.77940  0.30710  0.47820  Biso   1.000  O
  O37      1.0000 0.63690  0.32860  0.53160  Biso   1.000  O
  O38      1.0000 0.75980  0.45160  0.46250  Biso   1.000  O
  O39      1.0000 0.68090  0.25270  0.68100  Biso   1.000  O
  O40      1.0000 0.83890  0.18670  0.58970  Biso   1.000  O
  Tb3      1.0000 0.00908  0.14873  0.03970  Biso   1.000  Tb
  Tb4      1.0000 0.64394  0.14404  0.53514  Biso   1.000  Tb
