data_image0
_cell_length_a       13.4566
_cell_length_b       18.9975
_cell_length_c       18.9975
_cell_angle_alpha    120
_cell_angle_beta     90
_cell_angle_gamma    90

_symmetry_space_group_name_H-M    P 1
_symmetry_int_tables_number       1

loop_
  _symmetry_equiv_pos_as_xyz
  'x, y, z'

loop_
  _atom_site_label
  _atom_site_occupancy
  _atom_site_fract_x
  _atom_site_fract_y
  _atom_site_fract_z
  _atom_site_thermal_displace_type
  _atom_site_B_iso_or_equiv
  _atom_site_type_symbol
  Cu1      1.0000 0.73874  0.62278  0.81139  Biso   1.000  Cu
  Cu2      1.0000 0.90660  0.70732  0.85366  Biso   1.000  Cu
  Cu3      1.0000 0.73874  0.18861  0.37722  Biso   1.000  Cu
  Cu4      1.0000 0.90660  0.14634  0.29268  Biso   1.000  Cu
  Cu5      1.0000 0.73874  0.18861  0.81139  Biso   1.000  Cu
  Cu6      1.0000 0.90660  0.14634  0.85366  Biso   1.000  Cu
  Cu7      1.0000 0.23874  0.37722  0.18861  Biso   1.000  Cu
  Cu8      1.0000 0.40660  0.29268  0.14634  Biso   1.000  Cu
  Cu9      1.0000 0.23874  0.81139  0.62278  Biso   1.000  Cu
  Cu10     1.0000 0.40660  0.85366  0.70732  Biso   1.000  Cu
  Cu11     1.0000 0.23874  0.81139  0.18861  Biso   1.000  Cu
  Cu12     1.0000 0.40660  0.85366  0.14634  Biso   1.000  Cu
  H1       1.0000 0.03940  0.59160  0.61340  Biso   1.000  H
  H2       1.0000 0.57140  0.77510  0.75540  Biso   1.000  H
  H3       1.0000 0.56540  0.57760  0.81410  Biso   1.000  H
  H4       1.0000 0.03940  0.02180  0.40840  Biso   1.000  H
  H5       1.0000 0.57140  0.98030  0.22490  Biso   1.000  H
  H6       1.0000 0.56540  0.23650  0.42240  Biso   1.000  H
  H7       1.0000 0.03940  0.38660  0.97820  Biso   1.000  H
  H8       1.0000 0.57140  0.24460  0.01970  Biso   1.000  H
  H9       1.0000 0.56540  0.18590  0.76350  Biso   1.000  H
  H10      1.0000 0.53940  0.40840  0.38660  Biso   1.000  H
  H11      1.0000 0.07140  0.22490  0.24460  Biso   1.000  H
  H12      1.0000 0.06540  0.42240  0.18590  Biso   1.000  H
  H13      1.0000 0.53940  0.97820  0.59160  Biso   1.000  H
  H14      1.0000 0.07140  0.01970  0.77510  Biso   1.000  H
  H15      1.0000 0.06540  0.76350  0.57760  Biso   1.000  H
  H16      1.0000 0.53940  0.61340  0.02180  Biso   1.000  H
  H17      1.0000 0.07140  0.75540  0.98030  Biso   1.000  H
  H18      1.0000 0.06540  0.81410  0.23650  Biso   1.000  H
  H19      1.0000 0.03940  0.02180  0.61340  Biso   1.000  H
  H20      1.0000 0.57140  0.98030  0.75540  Biso   1.000  H
  H21      1.0000 0.56540  0.23650  0.81410  Biso   1.000  H
  H22      1.0000 0.03940  0.38660  0.40840  Biso   1.000  H
  H23      1.0000 0.57140  0.24460  0.22490  Biso   1.000  H
  H24      1.0000 0.56540  0.18590  0.42240  Biso   1.000  H
  H25      1.0000 0.03940  0.59160  0.97820  Biso   1.000  H
  H26      1.0000 0.57140  0.77510  0.01970  Biso   1.000  H
  H27      1.0000 0.56540  0.57760  0.76350  Biso   1.000  H
  H28      1.0000 0.53940  0.97820  0.38660  Biso   1.000  H
  H29      1.0000 0.07140  0.01970  0.24460  Biso   1.000  H
  H30      1.0000 0.06540  0.76350  0.18590  Biso   1.000  H
  H31      1.0000 0.53940  0.61340  0.59160  Biso   1.000  H
  H32      1.0000 0.07140  0.75540  0.77510  Biso   1.000  H
  H33      1.0000 0.06540  0.81410  0.57760  Biso   1.000  H
  H34      1.0000 0.53940  0.40840  0.02180  Biso   1.000  H
  H35      1.0000 0.07140  0.22490  0.98030  Biso   1.000  H
  H36      1.0000 0.06540  0.42240  0.23650  Biso   1.000  H
  H37      1.0000 0.82100  0.43135  0.56865  Biso   1.000  H
  H38      1.0000 0.82100  0.13730  0.56865  Biso   1.000  H
  H39      1.0000 0.82100  0.43135  0.86270  Biso   1.000  H
  H40      1.0000 0.32100  0.56865  0.43135  Biso   1.000  H
  H41      1.0000 0.32100  0.86270  0.43135  Biso   1.000  H
  H42      1.0000 0.32100  0.56865  0.13730  Biso   1.000  H
  H43      1.0000 0.82490  0.89965  0.79930  Biso   1.000  H
  H44      1.0000 0.82490  0.89965  0.10035  Biso   1.000  H
  H45      1.0000 0.82490  0.20070  0.10035  Biso   1.000  H
  H46      1.0000 0.32490  0.10035  0.20070  Biso   1.000  H
  H47      1.0000 0.32490  0.10035  0.89965  Biso   1.000  H
  H48      1.0000 0.32490  0.79930  0.89965  Biso   1.000  H
  C1       1.0000 0.01130  0.54080  0.57970  Biso   1.000  C
  C2       1.0000 0.93060  0.51800  0.60720  Biso   1.000  C
  C3       1.0000 0.88820  0.57150  0.69100  Biso   1.000  C
  C4       1.0000 0.60550  0.82050  0.76190  Biso   1.000  C
  C5       1.0000 0.70590  0.82660  0.78010  Biso   1.000  C
  C6       1.0000 0.75510  0.76380  0.79280  Biso   1.000  C
  C7       1.0000 0.01130  0.03890  0.45920  Biso   1.000  C
  C8       1.0000 0.93060  0.08920  0.48200  Biso   1.000  C
  C9       1.0000 0.88820  0.11950  0.42850  Biso   1.000  C
  C10      1.0000 0.60550  0.94140  0.17950  Biso   1.000  C
  C11      1.0000 0.70590  0.95350  0.17340  Biso   1.000  C
  C12      1.0000 0.75510  0.02900  0.23620  Biso   1.000  C
  C13      1.0000 0.01130  0.42030  0.96110  Biso   1.000  C
  C14      1.0000 0.93060  0.39280  0.91080  Biso   1.000  C
  C15      1.0000 0.88820  0.30900  0.88050  Biso   1.000  C
  C16      1.0000 0.60550  0.23810  0.05860  Biso   1.000  C
  C17      1.0000 0.70590  0.21990  0.04650  Biso   1.000  C
  C18      1.0000 0.75510  0.20720  0.97100  Biso   1.000  C
  C19      1.0000 0.51130  0.45920  0.42030  Biso   1.000  C
  C20      1.0000 0.43060  0.48200  0.39280  Biso   1.000  C
  C21      1.0000 0.38820  0.42850  0.30900  Biso   1.000  C
  C22      1.0000 0.10550  0.17950  0.23810  Biso   1.000  C
  C23      1.0000 0.20590  0.17340  0.21990  Biso   1.000  C
  C24      1.0000 0.25510  0.23620  0.20720  Biso   1.000  C
  C25      1.0000 0.51130  0.96110  0.54080  Biso   1.000  C
  C26      1.0000 0.43060  0.91080  0.51800  Biso   1.000  C
  C27      1.0000 0.38820  0.88050  0.57150  Biso   1.000  C
  C28      1.0000 0.10550  0.05860  0.82050  Biso   1.000  C
  C29      1.0000 0.20590  0.04650  0.82660  Biso   1.000  C
  C30      1.0000 0.25510  0.97100  0.76380  Biso   1.000  C
  C31      1.0000 0.51130  0.57970  0.03890  Biso   1.000  C
  C32      1.0000 0.43060  0.60720  0.08920  Biso   1.000  C
  C33      1.0000 0.38820  0.69100  0.11950  Biso   1.000  C
  C34      1.0000 0.10550  0.76190  0.94140  Biso   1.000  C
  C35      1.0000 0.20590  0.78010  0.95350  Biso   1.000  C
  C36      1.0000 0.25510  0.79280  0.02900  Biso   1.000  C
  C37      1.0000 0.01130  0.03890  0.57970  Biso   1.000  C
  C38      1.0000 0.93060  0.08920  0.60720  Biso   1.000  C
  C39      1.0000 0.88820  0.11950  0.69100  Biso   1.000  C
  C40      1.0000 0.60550  0.94140  0.76190  Biso   1.000  C
  C41      1.0000 0.70590  0.95350  0.78010  Biso   1.000  C
  C42      1.0000 0.75510  0.02900  0.79280  Biso   1.000  C
  C43      1.0000 0.01130  0.42030  0.45920  Biso   1.000  C
  C44      1.0000 0.93060  0.39280  0.48200  Biso   1.000  C
  C45      1.0000 0.88820  0.30900  0.42850  Biso   1.000  C
  C46      1.0000 0.60550  0.23810  0.17950  Biso   1.000  C
  C47      1.0000 0.70590  0.21990  0.17340  Biso   1.000  C
  C48      1.0000 0.75510  0.20720  0.23620  Biso   1.000  C
  C49      1.0000 0.01130  0.54080  0.96110  Biso   1.000  C
  C50      1.0000 0.93060  0.51800  0.91080  Biso   1.000  C
  C51      1.0000 0.88820  0.57150  0.88050  Biso   1.000  C
  C52      1.0000 0.60550  0.82050  0.05860  Biso   1.000  C
  C53      1.0000 0.70590  0.82660  0.04650  Biso   1.000  C
  C54      1.0000 0.75510  0.76380  0.97100  Biso   1.000  C
  C55      1.0000 0.51130  0.96110  0.42030  Biso   1.000  C
  C56      1.0000 0.43060  0.91080  0.39280  Biso   1.000  C
  C57      1.0000 0.38820  0.88050  0.30900  Biso   1.000  C
  C58      1.0000 0.10550  0.05860  0.23810  Biso   1.000  C
  C59      1.0000 0.20590  0.04650  0.21990  Biso   1.000  C
  C60      1.0000 0.25510  0.97100  0.20720  Biso   1.000  C
  C61      1.0000 0.51130  0.57970  0.54080  Biso   1.000  C
  C62      1.0000 0.43060  0.60720  0.51800  Biso   1.000  C
  C63      1.0000 0.38820  0.69100  0.57150  Biso   1.000  C
  C64      1.0000 0.10550  0.76190  0.82050  Biso   1.000  C
  C65      1.0000 0.20590  0.78010  0.82660  Biso   1.000  C
  C66      1.0000 0.25510  0.79280  0.76380  Biso   1.000  C
  C67      1.0000 0.51130  0.45920  0.03890  Biso   1.000  C
  C68      1.0000 0.43060  0.48200  0.08920  Biso   1.000  C
  C69      1.0000 0.38820  0.42850  0.11950  Biso   1.000  C
  C70      1.0000 0.10550  0.17950  0.94140  Biso   1.000  C
  C71      1.0000 0.20590  0.17340  0.95350  Biso   1.000  C
  C72      1.0000 0.25510  0.23620  0.02900  Biso   1.000  C
  C73      1.0000 0.88440  0.44400  0.55600  Biso   1.000  C
  C74      1.0000 0.88440  0.11200  0.55600  Biso   1.000  C
  C75      1.0000 0.88440  0.44400  0.88800  Biso   1.000  C
  C76      1.0000 0.38440  0.55600  0.44400  Biso   1.000  C
  C77      1.0000 0.38440  0.88800  0.44400  Biso   1.000  C
  C78      1.0000 0.38440  0.55600  0.11200  Biso   1.000  C
  C79      1.0000 0.75710  0.89420  0.78840  Biso   1.000  C
  C80      1.0000 0.75710  0.89420  0.10580  Biso   1.000  C
  C81      1.0000 0.75710  0.21160  0.10580  Biso   1.000  C
  C82      1.0000 0.25710  0.10580  0.21160  Biso   1.000  C
  C83      1.0000 0.25710  0.10580  0.89420  Biso   1.000  C
  C84      1.0000 0.25710  0.78840  0.89420  Biso   1.000  C
  N1       1.0000 0.05140  0.49345  0.50655  Biso   1.000  N
  N2       1.0000 0.05140  0.01310  0.50655  Biso   1.000  N
  N3       1.0000 0.05140  0.49345  0.98690  Biso   1.000  N
  N4       1.0000 0.55140  0.50655  0.49345  Biso   1.000  N
  N5       1.0000 0.55140  0.98690  0.49345  Biso   1.000  N
  N6       1.0000 0.55140  0.50655  0.01310  Biso   1.000  N
  N7       1.0000 0.55450  0.87653  0.75306  Biso   1.000  N
  N8       1.0000 0.55450  0.87653  0.12347  Biso   1.000  N
  N9       1.0000 0.55450  0.24694  0.12347  Biso   1.000  N
  N10      1.0000 0.05450  0.12347  0.24694  Biso   1.000  N
  N11      1.0000 0.05450  0.12347  0.87653  Biso   1.000  N
  N12      1.0000 0.05450  0.75306  0.87653  Biso   1.000  N
  O1       1.0000 0.80240  0.55570  0.70570  Biso   1.000  O
  O2       1.0000 0.94270  0.62890  0.74110  Biso   1.000  O
  O3       1.0000 0.70230  0.70380  0.78040  Biso   1.000  O
  O4       1.0000 0.84340  0.77580  0.81560  Biso   1.000  O
  O5       1.0000 0.80240  0.15000  0.44430  Biso   1.000  O
  O6       1.0000 0.94270  0.11220  0.37110  Biso   1.000  O
  O7       1.0000 0.70230  0.07660  0.29620  Biso   1.000  O
  O8       1.0000 0.84340  0.03980  0.22420  Biso   1.000  O
  O9       1.0000 0.80240  0.29430  0.85000  Biso   1.000  O
  O10      1.0000 0.94270  0.25890  0.88780  Biso   1.000  O
  O11      1.0000 0.70230  0.21960  0.92340  Biso   1.000  O
  O12      1.0000 0.84340  0.18440  0.96020  Biso   1.000  O
  O13      1.0000 0.30240  0.44430  0.29430  Biso   1.000  O
  O14      1.0000 0.44270  0.37110  0.25890  Biso   1.000  O
  O15      1.0000 0.20230  0.29620  0.21960  Biso   1.000  O
  O16      1.0000 0.34340  0.22420  0.18440  Biso   1.000  O
  O17      1.0000 0.30240  0.85000  0.55570  Biso   1.000  O
  O18      1.0000 0.44270  0.88780  0.62890  Biso   1.000  O
  O19      1.0000 0.20230  0.92340  0.70380  Biso   1.000  O
  O20      1.0000 0.34340  0.96020  0.77580  Biso   1.000  O
  O21      1.0000 0.30240  0.70570  0.15000  Biso   1.000  O
  O22      1.0000 0.44270  0.74110  0.11220  Biso   1.000  O
  O23      1.0000 0.20230  0.78040  0.07660  Biso   1.000  O
  O24      1.0000 0.34340  0.81560  0.03980  Biso   1.000  O
  O25      1.0000 0.80240  0.15000  0.70570  Biso   1.000  O
  O26      1.0000 0.94270  0.11220  0.74110  Biso   1.000  O
  O27      1.0000 0.70230  0.07660  0.78040  Biso   1.000  O
  O28      1.0000 0.84340  0.03980  0.81560  Biso   1.000  O
  O29      1.0000 0.80240  0.29430  0.44430  Biso   1.000  O
  O30      1.0000 0.94270  0.25890  0.37110  Biso   1.000  O
  O31      1.0000 0.70230  0.21960  0.29620  Biso   1.000  O
  O32      1.0000 0.84340  0.18440  0.22420  Biso   1.000  O
  O33      1.0000 0.80240  0.55570  0.85000  Biso   1.000  O
  O34      1.0000 0.94270  0.62890  0.88780  Biso   1.000  O
  O35      1.0000 0.70230  0.70380  0.92340  Biso   1.000  O
  O36      1.0000 0.84340  0.77580  0.96020  Biso   1.000  O
  O37      1.0000 0.30240  0.85000  0.29430  Biso   1.000  O
  O38      1.0000 0.44270  0.88780  0.25890  Biso   1.000  O
  O39      1.0000 0.20230  0.92340  0.21960  Biso   1.000  O
  O40      1.0000 0.34340  0.96020  0.18440  Biso   1.000  O
  O41      1.0000 0.30240  0.70570  0.55570  Biso   1.000  O
  O42      1.0000 0.44270  0.74110  0.62890  Biso   1.000  O
  O43      1.0000 0.20230  0.78040  0.70380  Biso   1.000  O
  O44      1.0000 0.34340  0.81560  0.77580  Biso   1.000  O
  O45      1.0000 0.30240  0.44430  0.15000  Biso   1.000  O
  O46      1.0000 0.44270  0.37110  0.11220  Biso   1.000  O
  O47      1.0000 0.20230  0.29620  0.07660  Biso   1.000  O
  O48      1.0000 0.34340  0.22420  0.03980  Biso   1.000  O
  O49      1.0000 0.60640  0.55510  0.77755  Biso   1.000  O
  O50      1.0000 0.60640  0.22245  0.44490  Biso   1.000  O
  O51      1.0000 0.60640  0.22245  0.77755  Biso   1.000  O
  O52      1.0000 0.10640  0.44490  0.22245  Biso   1.000  O
  O53      1.0000 0.10640  0.77755  0.55510  Biso   1.000  O
  O54      1.0000 0.10640  0.77755  0.22245  Biso   1.000  O
