data_image0
_cell_length_a       10.4693
_cell_length_b       26.9783
_cell_length_c       26.9783
_cell_angle_alpha    61.6471
_cell_angle_beta     82.5677
_cell_angle_gamma    97.4323

_symmetry_space_group_name_H-M    P 1
_symmetry_int_tables_number       1

loop_
  _symmetry_equiv_pos_as_xyz
  'x, y, z'

loop_
  _atom_site_label
  _atom_site_occupancy
  _atom_site_fract_x
  _atom_site_fract_y
  _atom_site_fract_z
  _atom_site_thermal_displace_type
  _atom_site_B_iso_or_equiv
  _atom_site_type_symbol
  Cu1      1.0000 0.42073  0.00000  0.46571  Biso   1.000  Cu
  Cu2      1.0000 0.88644  0.46571  0.53429  Biso   1.000  Cu
  Cu3      1.0000 0.42073  0.53429  0.00000  Biso   1.000  Cu
  Cu4      1.0000 0.11356  0.53429  0.46571  Biso   1.000  Cu
  Cu5      1.0000 0.57927  0.00000  0.53429  Biso   1.000  Cu
  Cu6      1.0000 0.57927  0.46571  0.00000  Biso   1.000  Cu
  H1       1.0000 0.44750  0.12590  0.57310  Biso   1.000  H
  H2       1.0000 0.25710  0.14320  0.45000  Biso   1.000  H
  H3       1.0000 0.34030  0.23550  0.59390  Biso   1.000  H
  H4       1.0000 0.47020  0.21240  0.59360  Biso   1.000  H
  H5       1.0000 0.33720  0.17000  0.63490  Biso   1.000  H
  H6       1.0000 0.21880  0.10910  0.36220  Biso   1.000  H
  H7       1.0000 0.19720  0.08710  0.31890  Biso   1.000  H
  H8       1.0000 0.33560  0.09300  0.33440  Biso   1.000  H
  H9       1.0000 0.98840  0.05340  0.39110  Biso   1.000  H
  H10      1.0000 0.91680  0.99200  0.40500  Biso   1.000  H
  H11      1.0000 0.04810  0.02450  0.35770  Biso   1.000  H
  H12      1.0000 0.06440  0.08910  0.38510  Biso   1.000  H
  H13      1.0000 0.21150  0.08300  0.38440  Biso   1.000  H
  H14      1.0000 0.13340  0.06790  0.34590  Biso   1.000  H
  H15      1.0000 0.02060  0.57310  0.30100  Biso   1.000  H
  H16      1.0000 0.70710  0.45000  0.40680  Biso   1.000  H
  H17      1.0000 0.93420  0.59390  0.17060  Biso   1.000  H
  H18      1.0000 0.06380  0.59360  0.19400  Biso   1.000  H
  H19      1.0000 0.97210  0.63490  0.19510  Biso   1.000  H
  H20      1.0000 0.58100  0.36220  0.52870  Biso   1.000  H
  H21      1.0000 0.51610  0.31890  0.59400  Biso   1.000  H
  H22      1.0000 0.67000  0.33440  0.57260  Biso   1.000  H
  H23      1.0000 0.37950  0.39110  0.55550  Biso   1.000  H
  H24      1.0000 0.32180  0.40500  0.60300  Biso   1.000  H
  H25      1.0000 0.40580  0.35770  0.61780  Biso   1.000  H
  H26      1.0000 0.44950  0.38510  0.52580  Biso   1.000  H
  H27      1.0000 0.59590  0.38440  0.53260  Biso   1.000  H
  H28      1.0000 0.47930  0.34590  0.58620  Biso   1.000  H
  H29      1.0000 0.32160  0.30100  0.12590  Biso   1.000  H
  H30      1.0000 0.11390  0.40680  0.14320  Biso   1.000  H
  H31      1.0000 0.10480  0.17060  0.23550  Biso   1.000  H
  H32      1.0000 0.25780  0.19400  0.21240  Biso   1.000  H
  H33      1.0000 0.16720  0.19510  0.17000  Biso   1.000  H
  H34      1.0000 0.10970  0.52870  0.10910  Biso   1.000  H
  H35      1.0000 0.11010  0.59400  0.08710  Biso   1.000  H
  H36      1.0000 0.24260  0.57260  0.09300  Biso   1.000  H
  H37      1.0000 0.93500  0.55550  0.05340  Biso   1.000  H
  H38      1.0000 0.92480  0.60300  0.99200  Biso   1.000  H
  H39      1.0000 0.02360  0.61780  0.02450  Biso   1.000  H
  H40      1.0000 0.97530  0.52580  0.08910  Biso   1.000  H
  H41      1.0000 0.12850  0.53260  0.08300  Biso   1.000  H
  H42      1.0000 0.06550  0.58620  0.06790  Biso   1.000  H
  H43      1.0000 0.97940  0.30100  0.57310  Biso   1.000  H
  H44      1.0000 0.29290  0.40680  0.45000  Biso   1.000  H
  H45      1.0000 0.06580  0.17060  0.59390  Biso   1.000  H
  H46      1.0000 0.93620  0.19400  0.59360  Biso   1.000  H
  H47      1.0000 0.02790  0.19510  0.63490  Biso   1.000  H
  H48      1.0000 0.41900  0.52870  0.36220  Biso   1.000  H
  H49      1.0000 0.48390  0.59400  0.31890  Biso   1.000  H
  H50      1.0000 0.33000  0.57260  0.33440  Biso   1.000  H
  H51      1.0000 0.62050  0.55550  0.39110  Biso   1.000  H
  H52      1.0000 0.67820  0.60300  0.40500  Biso   1.000  H
  H53      1.0000 0.59420  0.61780  0.35770  Biso   1.000  H
  H54      1.0000 0.55050  0.52580  0.38510  Biso   1.000  H
  H55      1.0000 0.40410  0.53260  0.38440  Biso   1.000  H
  H56      1.0000 0.52070  0.58620  0.34590  Biso   1.000  H
  H57      1.0000 0.67840  0.12590  0.30100  Biso   1.000  H
  H58      1.0000 0.88610  0.14320  0.40680  Biso   1.000  H
  H59      1.0000 0.89520  0.23550  0.17060  Biso   1.000  H
  H60      1.0000 0.74220  0.21240  0.19400  Biso   1.000  H
  H61      1.0000 0.83280  0.17000  0.19510  Biso   1.000  H
  H62      1.0000 0.89030  0.10910  0.52870  Biso   1.000  H
  H63      1.0000 0.88990  0.08710  0.59400  Biso   1.000  H
  H64      1.0000 0.75740  0.09300  0.57260  Biso   1.000  H
  H65      1.0000 0.06500  0.05340  0.55550  Biso   1.000  H
  H66      1.0000 0.07520  0.99200  0.60300  Biso   1.000  H
  H67      1.0000 0.97640  0.02450  0.61780  Biso   1.000  H
  H68      1.0000 0.02470  0.08910  0.52580  Biso   1.000  H
  H69      1.0000 0.87150  0.08300  0.53260  Biso   1.000  H
  H70      1.0000 0.93450  0.06790  0.58620  Biso   1.000  H
  H71      1.0000 0.55250  0.57310  0.12590  Biso   1.000  H
  H72      1.0000 0.74290  0.45000  0.14320  Biso   1.000  H
  H73      1.0000 0.65970  0.59390  0.23550  Biso   1.000  H
  H74      1.0000 0.52980  0.59360  0.21240  Biso   1.000  H
  H75      1.0000 0.66280  0.63490  0.17000  Biso   1.000  H
  H76      1.0000 0.78120  0.36220  0.10910  Biso   1.000  H
  H77      1.0000 0.80280  0.31890  0.08710  Biso   1.000  H
  H78      1.0000 0.66440  0.33440  0.09300  Biso   1.000  H
  H79      1.0000 0.01160  0.39110  0.05340  Biso   1.000  H
  H80      1.0000 0.08320  0.40500  0.99200  Biso   1.000  H
  H81      1.0000 0.95190  0.35770  0.02450  Biso   1.000  H
  H82      1.0000 0.93560  0.38510  0.08910  Biso   1.000  H
  H83      1.0000 0.78850  0.38440  0.08300  Biso   1.000  H
  H84      1.0000 0.86660  0.34590  0.06790  Biso   1.000  H
  H85      1.0000 0.55250  0.87410  0.42690  Biso   1.000  H
  H86      1.0000 0.74290  0.85680  0.55000  Biso   1.000  H
  H87      1.0000 0.65970  0.76450  0.40610  Biso   1.000  H
  H88      1.0000 0.52980  0.78760  0.40640  Biso   1.000  H
  H89      1.0000 0.66280  0.83000  0.36510  Biso   1.000  H
  H90      1.0000 0.78120  0.89090  0.63780  Biso   1.000  H
  H91      1.0000 0.80280  0.91290  0.68110  Biso   1.000  H
  H92      1.0000 0.66440  0.90700  0.66560  Biso   1.000  H
  H93      1.0000 0.01160  0.94660  0.60890  Biso   1.000  H
  H94      1.0000 0.08320  0.00800  0.59500  Biso   1.000  H
  H95      1.0000 0.95190  0.97550  0.64230  Biso   1.000  H
  H96      1.0000 0.93560  0.91090  0.61490  Biso   1.000  H
  H97      1.0000 0.78850  0.91700  0.61560  Biso   1.000  H
  H98      1.0000 0.86660  0.93210  0.65410  Biso   1.000  H
  H99      1.0000 0.97940  0.42690  0.69900  Biso   1.000  H
  H100     1.0000 0.29290  0.55000  0.59320  Biso   1.000  H
  H101     1.0000 0.06580  0.40610  0.82940  Biso   1.000  H
  H102     1.0000 0.93620  0.40640  0.80600  Biso   1.000  H
  H103     1.0000 0.02790  0.36510  0.80490  Biso   1.000  H
  H104     1.0000 0.41900  0.63780  0.47130  Biso   1.000  H
  H105     1.0000 0.48390  0.68110  0.40600  Biso   1.000  H
  H106     1.0000 0.33000  0.66560  0.42740  Biso   1.000  H
  H107     1.0000 0.62050  0.60890  0.44450  Biso   1.000  H
  H108     1.0000 0.67820  0.59500  0.39700  Biso   1.000  H
  H109     1.0000 0.59420  0.64230  0.38220  Biso   1.000  H
  H110     1.0000 0.55050  0.61490  0.47420  Biso   1.000  H
  H111     1.0000 0.40410  0.61560  0.46740  Biso   1.000  H
  H112     1.0000 0.52070  0.65410  0.41380  Biso   1.000  H
  H113     1.0000 0.67840  0.69900  0.87410  Biso   1.000  H
  H114     1.0000 0.88610  0.59320  0.85680  Biso   1.000  H
  H115     1.0000 0.89520  0.82940  0.76450  Biso   1.000  H
  H116     1.0000 0.74220  0.80600  0.78760  Biso   1.000  H
  H117     1.0000 0.83280  0.80490  0.83000  Biso   1.000  H
  H118     1.0000 0.89030  0.47130  0.89090  Biso   1.000  H
  H119     1.0000 0.88990  0.40600  0.91290  Biso   1.000  H
  H120     1.0000 0.75740  0.42740  0.90700  Biso   1.000  H
  H121     1.0000 0.06500  0.44450  0.94660  Biso   1.000  H
  H122     1.0000 0.07520  0.39700  0.00800  Biso   1.000  H
  H123     1.0000 0.97640  0.38220  0.97550  Biso   1.000  H
  H124     1.0000 0.02470  0.47420  0.91090  Biso   1.000  H
  H125     1.0000 0.87150  0.46740  0.91700  Biso   1.000  H
  H126     1.0000 0.93450  0.41380  0.93210  Biso   1.000  H
  H127     1.0000 0.02060  0.69900  0.42690  Biso   1.000  H
  H128     1.0000 0.70710  0.59320  0.55000  Biso   1.000  H
  H129     1.0000 0.93420  0.82940  0.40610  Biso   1.000  H
  H130     1.0000 0.06380  0.80600  0.40640  Biso   1.000  H
  H131     1.0000 0.97210  0.80490  0.36510  Biso   1.000  H
  H132     1.0000 0.58100  0.47130  0.63780  Biso   1.000  H
  H133     1.0000 0.51610  0.40600  0.68110  Biso   1.000  H
  H134     1.0000 0.67000  0.42740  0.66560  Biso   1.000  H
  H135     1.0000 0.37950  0.44450  0.60890  Biso   1.000  H
  H136     1.0000 0.32180  0.39700  0.59500  Biso   1.000  H
  H137     1.0000 0.40580  0.38220  0.64230  Biso   1.000  H
  H138     1.0000 0.44950  0.47420  0.61490  Biso   1.000  H
  H139     1.0000 0.59590  0.46740  0.61560  Biso   1.000  H
  H140     1.0000 0.47930  0.41380  0.65410  Biso   1.000  H
  H141     1.0000 0.32160  0.87410  0.69900  Biso   1.000  H
  H142     1.0000 0.11390  0.85680  0.59320  Biso   1.000  H
  H143     1.0000 0.10480  0.76450  0.82940  Biso   1.000  H
  H144     1.0000 0.25780  0.78760  0.80600  Biso   1.000  H
  H145     1.0000 0.16720  0.83000  0.80490  Biso   1.000  H
  H146     1.0000 0.10970  0.89090  0.47130  Biso   1.000  H
  H147     1.0000 0.11010  0.91290  0.40600  Biso   1.000  H
  H148     1.0000 0.24260  0.90700  0.42740  Biso   1.000  H
  H149     1.0000 0.93500  0.94660  0.44450  Biso   1.000  H
  H150     1.0000 0.92480  0.00800  0.39700  Biso   1.000  H
  H151     1.0000 0.02360  0.97550  0.38220  Biso   1.000  H
  H152     1.0000 0.97530  0.91090  0.47420  Biso   1.000  H
  H153     1.0000 0.12850  0.91700  0.46740  Biso   1.000  H
  H154     1.0000 0.06550  0.93210  0.41380  Biso   1.000  H
  H155     1.0000 0.44750  0.42690  0.87410  Biso   1.000  H
  H156     1.0000 0.25710  0.55000  0.85680  Biso   1.000  H
  H157     1.0000 0.34030  0.40610  0.76450  Biso   1.000  H
  H158     1.0000 0.47020  0.40640  0.78760  Biso   1.000  H
  H159     1.0000 0.33720  0.36510  0.83000  Biso   1.000  H
  H160     1.0000 0.21880  0.63780  0.89090  Biso   1.000  H
  H161     1.0000 0.19720  0.68110  0.91290  Biso   1.000  H
  H162     1.0000 0.33560  0.66560  0.90700  Biso   1.000  H
  H163     1.0000 0.98840  0.60890  0.94660  Biso   1.000  H
  H164     1.0000 0.91680  0.59500  0.00800  Biso   1.000  H
  H165     1.0000 0.04810  0.64230  0.97550  Biso   1.000  H
  H166     1.0000 0.06440  0.61490  0.91090  Biso   1.000  H
  H167     1.0000 0.21150  0.61560  0.91700  Biso   1.000  H
  H168     1.0000 0.13340  0.65410  0.93210  Biso   1.000  H
  C1       1.0000 0.35843  0.12638  0.51169  Biso   1.000  C
  C2       1.0000 0.39285  0.14441  0.54886  Biso   1.000  C
  C3       1.0000 0.34734  0.19032  0.55130  Biso   1.000  C
  C4       1.0000 0.26691  0.21741  0.51488  Biso   1.000  C
  C5       1.0000 0.22952  0.19910  0.47764  Biso   1.000  C
  C6       1.0000 0.27883  0.15443  0.47614  Biso   1.000  C
  C7       1.0000 0.41020  0.07786  0.50946  Biso   1.000  C
  C8       1.0000 0.37641  0.20323  0.59760  Biso   1.000  C
  C9       1.0000 0.20110  0.02140  0.39900  Biso   1.000  C
  C10      1.0000 0.24220  0.08350  0.34890  Biso   1.000  C
  C11      1.0000 0.00110  0.01750  0.39420  Biso   1.000  C
  C12      1.0000 0.12670  0.06690  0.38210  Biso   1.000  C
  C13      1.0000 0.87012  0.51169  0.36193  Biso   1.000  C
  C14      1.0000 0.94171  0.54886  0.30673  Biso   1.000  C
  C15      1.0000 0.89864  0.55130  0.25838  Biso   1.000  C
  C16      1.0000 0.78179  0.51488  0.26771  Biso   1.000  C
  C17      1.0000 0.70716  0.47764  0.32326  Biso   1.000  C
  C18      1.0000 0.75497  0.47614  0.36943  Biso   1.000  C
  C19      1.0000 0.91966  0.50946  0.41268  Biso   1.000  C
  C20      1.0000 0.97401  0.59760  0.19917  Biso   1.000  C
  C21      1.0000 0.60010  0.39900  0.57960  Biso   1.000  C
  C22      1.0000 0.59110  0.34890  0.56760  Biso   1.000  C
  C23      1.0000 0.39530  0.39420  0.58830  Biso   1.000  C
  C24      1.0000 0.50880  0.38210  0.55100  Biso   1.000  C
  C25      1.0000 0.23205  0.36193  0.12638  Biso   1.000  C
  C26      1.0000 0.24844  0.30673  0.14441  Biso   1.000  C
  C27      1.0000 0.15702  0.25838  0.19032  Biso   1.000  C
  C28      1.0000 0.04950  0.26771  0.21741  Biso   1.000  C
  C29      1.0000 0.03042  0.32326  0.19910  Biso   1.000  C
  C30      1.0000 0.12440  0.36943  0.15443  Biso   1.000  C
  C31      1.0000 0.33234  0.41268  0.07786  Biso   1.000  C
  C32      1.0000 0.17318  0.19917  0.20323  Biso   1.000  C
  C33      1.0000 0.17970  0.57960  0.02140  Biso   1.000  C
  C34      1.0000 0.15870  0.56760  0.08350  Biso   1.000  C
  C35      1.0000 0.98360  0.58830  0.01750  Biso   1.000  C
  C36      1.0000 0.05980  0.55100  0.06690  Biso   1.000  C
  C37      1.0000 0.12988  0.36193  0.51169  Biso   1.000  C
  C38      1.0000 0.05829  0.30673  0.54886  Biso   1.000  C
  C39      1.0000 0.10136  0.25838  0.55130  Biso   1.000  C
  C40      1.0000 0.21821  0.26771  0.51488  Biso   1.000  C
  C41      1.0000 0.29284  0.32326  0.47764  Biso   1.000  C
  C42      1.0000 0.24503  0.36943  0.47614  Biso   1.000  C
  C43      1.0000 0.08034  0.41268  0.50946  Biso   1.000  C
  C44      1.0000 0.02599  0.19917  0.59760  Biso   1.000  C
  C45      1.0000 0.39990  0.57960  0.39900  Biso   1.000  C
  C46      1.0000 0.40890  0.56760  0.34890  Biso   1.000  C
  C47      1.0000 0.60470  0.58830  0.39420  Biso   1.000  C
  C48      1.0000 0.49120  0.55100  0.38210  Biso   1.000  C
  C49      1.0000 0.76795  0.12638  0.36193  Biso   1.000  C
  C50      1.0000 0.75156  0.14441  0.30673  Biso   1.000  C
  C51      1.0000 0.84298  0.19032  0.25838  Biso   1.000  C
  C52      1.0000 0.95050  0.21741  0.26771  Biso   1.000  C
  C53      1.0000 0.96958  0.19910  0.32326  Biso   1.000  C
  C54      1.0000 0.87560  0.15443  0.36943  Biso   1.000  C
  C55      1.0000 0.66766  0.07786  0.41268  Biso   1.000  C
  C56      1.0000 0.82682  0.20323  0.19917  Biso   1.000  C
  C57      1.0000 0.82030  0.02140  0.57960  Biso   1.000  C
  C58      1.0000 0.84130  0.08350  0.56760  Biso   1.000  C
  C59      1.0000 0.01640  0.01750  0.58830  Biso   1.000  C
  C60      1.0000 0.94020  0.06690  0.55100  Biso   1.000  C
  C61      1.0000 0.64157  0.51169  0.12638  Biso   1.000  C
  C62      1.0000 0.60715  0.54886  0.14441  Biso   1.000  C
  C63      1.0000 0.65266  0.55130  0.19032  Biso   1.000  C
  C64      1.0000 0.73309  0.51488  0.21741  Biso   1.000  C
  C65      1.0000 0.77048  0.47764  0.19910  Biso   1.000  C
  C66      1.0000 0.72117  0.47614  0.15443  Biso   1.000  C
  C67      1.0000 0.58980  0.50946  0.07786  Biso   1.000  C
  C68      1.0000 0.62359  0.59760  0.20323  Biso   1.000  C
  C69      1.0000 0.79890  0.39900  0.02140  Biso   1.000  C
  C70      1.0000 0.75780  0.34890  0.08350  Biso   1.000  C
  C71      1.0000 0.99890  0.39420  0.01750  Biso   1.000  C
  C72      1.0000 0.87330  0.38210  0.06690  Biso   1.000  C
  C73      1.0000 0.64157  0.87362  0.48831  Biso   1.000  C
  C74      1.0000 0.60715  0.85559  0.45114  Biso   1.000  C
  C75      1.0000 0.65266  0.80968  0.44870  Biso   1.000  C
  C76      1.0000 0.73309  0.78259  0.48512  Biso   1.000  C
  C77      1.0000 0.77048  0.80090  0.52236  Biso   1.000  C
  C78      1.0000 0.72117  0.84557  0.52386  Biso   1.000  C
  C79      1.0000 0.58980  0.92214  0.49054  Biso   1.000  C
  C80      1.0000 0.62359  0.79677  0.40240  Biso   1.000  C
  C81      1.0000 0.79890  0.97860  0.60100  Biso   1.000  C
  C82      1.0000 0.75780  0.91650  0.65110  Biso   1.000  C
  C83      1.0000 0.99890  0.98250  0.60580  Biso   1.000  C
  C84      1.0000 0.87330  0.93310  0.61790  Biso   1.000  C
  C85      1.0000 0.12988  0.48831  0.63807  Biso   1.000  C
  C86      1.0000 0.05829  0.45114  0.69327  Biso   1.000  C
  C87      1.0000 0.10136  0.44870  0.74162  Biso   1.000  C
  C88      1.0000 0.21821  0.48512  0.73229  Biso   1.000  C
  C89      1.0000 0.29284  0.52236  0.67674  Biso   1.000  C
  C90      1.0000 0.24503  0.52386  0.63057  Biso   1.000  C
  C91      1.0000 0.08034  0.49054  0.58732  Biso   1.000  C
  C92      1.0000 0.02599  0.40240  0.80083  Biso   1.000  C
  C93      1.0000 0.39990  0.60100  0.42040  Biso   1.000  C
  C94      1.0000 0.40890  0.65110  0.43240  Biso   1.000  C
  C95      1.0000 0.60470  0.60580  0.41170  Biso   1.000  C
  C96      1.0000 0.49120  0.61790  0.44900  Biso   1.000  C
  C97      1.0000 0.76795  0.63807  0.87362  Biso   1.000  C
  C98      1.0000 0.75156  0.69327  0.85559  Biso   1.000  C
  C99      1.0000 0.84298  0.74162  0.80968  Biso   1.000  C
  C100     1.0000 0.95050  0.73229  0.78259  Biso   1.000  C
  C101     1.0000 0.96958  0.67674  0.80090  Biso   1.000  C
  C102     1.0000 0.87560  0.63057  0.84557  Biso   1.000  C
  C103     1.0000 0.66766  0.58732  0.92214  Biso   1.000  C
  C104     1.0000 0.82682  0.80083  0.79677  Biso   1.000  C
  C105     1.0000 0.82030  0.42040  0.97860  Biso   1.000  C
  C106     1.0000 0.84130  0.43240  0.91650  Biso   1.000  C
  C107     1.0000 0.01640  0.41170  0.98250  Biso   1.000  C
  C108     1.0000 0.94020  0.44900  0.93310  Biso   1.000  C
  C109     1.0000 0.87012  0.63807  0.48831  Biso   1.000  C
  C110     1.0000 0.94171  0.69327  0.45114  Biso   1.000  C
  C111     1.0000 0.89864  0.74162  0.44870  Biso   1.000  C
  C112     1.0000 0.78179  0.73229  0.48512  Biso   1.000  C
  C113     1.0000 0.70716  0.67674  0.52236  Biso   1.000  C
  C114     1.0000 0.75497  0.63057  0.52386  Biso   1.000  C
  C115     1.0000 0.91966  0.58732  0.49054  Biso   1.000  C
  C116     1.0000 0.97401  0.80083  0.40240  Biso   1.000  C
  C117     1.0000 0.60010  0.42040  0.60100  Biso   1.000  C
  C118     1.0000 0.59110  0.43240  0.65110  Biso   1.000  C
  C119     1.0000 0.39530  0.41170  0.60580  Biso   1.000  C
  C120     1.0000 0.50880  0.44900  0.61790  Biso   1.000  C
  C121     1.0000 0.23205  0.87362  0.63807  Biso   1.000  C
  C122     1.0000 0.24844  0.85559  0.69327  Biso   1.000  C
  C123     1.0000 0.15702  0.80968  0.74162  Biso   1.000  C
  C124     1.0000 0.04950  0.78259  0.73229  Biso   1.000  C
  C125     1.0000 0.03042  0.80090  0.67674  Biso   1.000  C
  C126     1.0000 0.12440  0.84557  0.63057  Biso   1.000  C
  C127     1.0000 0.33234  0.92214  0.58732  Biso   1.000  C
  C128     1.0000 0.17318  0.79677  0.80083  Biso   1.000  C
  C129     1.0000 0.17970  0.97860  0.42040  Biso   1.000  C
  C130     1.0000 0.15870  0.91650  0.43240  Biso   1.000  C
  C131     1.0000 0.98360  0.98250  0.41170  Biso   1.000  C
  C132     1.0000 0.05980  0.93310  0.44900  Biso   1.000  C
  C133     1.0000 0.35843  0.48831  0.87362  Biso   1.000  C
  C134     1.0000 0.39285  0.45114  0.85559  Biso   1.000  C
  C135     1.0000 0.34734  0.44870  0.80968  Biso   1.000  C
  C136     1.0000 0.26691  0.48512  0.78259  Biso   1.000  C
  C137     1.0000 0.22952  0.52236  0.80090  Biso   1.000  C
  C138     1.0000 0.27883  0.52386  0.84557  Biso   1.000  C
  C139     1.0000 0.41020  0.49054  0.92214  Biso   1.000  C
  C140     1.0000 0.37641  0.40240  0.79677  Biso   1.000  C
  C141     1.0000 0.20110  0.60100  0.97860  Biso   1.000  C
  C142     1.0000 0.24220  0.65110  0.91650  Biso   1.000  C
  C143     1.0000 0.00110  0.60580  0.98250  Biso   1.000  C
  C144     1.0000 0.12670  0.61790  0.93310  Biso   1.000  C
  N1       1.0000 0.07480  0.99170  0.43680  Biso   1.000  N
  N2       1.0000 0.51160  0.43680  0.57150  Biso   1.000  N
  N3       1.0000 0.08310  0.57150  0.99170  Biso   1.000  N
  N4       1.0000 0.48840  0.57150  0.43680  Biso   1.000  N
  N5       1.0000 0.91690  0.99170  0.57150  Biso   1.000  N
  N6       1.0000 0.92520  0.43680  0.99170  Biso   1.000  N
  N7       1.0000 0.92520  0.00830  0.56320  Biso   1.000  N
  N8       1.0000 0.48840  0.56320  0.42850  Biso   1.000  N
  N9       1.0000 0.91690  0.42850  0.00830  Biso   1.000  N
  N10      1.0000 0.51160  0.42850  0.56320  Biso   1.000  N
  N11      1.0000 0.08310  0.00830  0.42850  Biso   1.000  N
  N12      1.0000 0.07480  0.56320  0.00830  Biso   1.000  N
  O1       1.0000 0.36297  0.06001  0.47880  Biso   1.000  O
  O2       1.0000 0.49671  0.05936  0.53770  Biso   1.000  O
  O3       1.0000 0.84177  0.47880  0.46119  Biso   1.000  O
  O4       1.0000 0.03441  0.53770  0.40294  Biso   1.000  O
  O5       1.0000 0.30296  0.46119  0.06001  Biso   1.000  O
  O6       1.0000 0.43735  0.40294  0.05936  Biso   1.000  O
  O7       1.0000 0.15823  0.46119  0.47880  Biso   1.000  O
  O8       1.0000 0.96559  0.40294  0.53770  Biso   1.000  O
  O9       1.0000 0.69704  0.06001  0.46119  Biso   1.000  O
  O10      1.0000 0.56265  0.05936  0.40294  Biso   1.000  O
  O11      1.0000 0.63703  0.47880  0.06001  Biso   1.000  O
  O12      1.0000 0.50329  0.53770  0.05936  Biso   1.000  O
  O13      1.0000 0.63703  0.93999  0.52120  Biso   1.000  O
  O14      1.0000 0.50329  0.94064  0.46230  Biso   1.000  O
  O15      1.0000 0.15823  0.52120  0.53881  Biso   1.000  O
  O16      1.0000 0.96559  0.46230  0.59706  Biso   1.000  O
  O17      1.0000 0.69704  0.53881  0.93999  Biso   1.000  O
  O18      1.0000 0.56265  0.59706  0.94064  Biso   1.000  O
  O19      1.0000 0.84177  0.53881  0.52120  Biso   1.000  O
  O20      1.0000 0.03441  0.59706  0.46230  Biso   1.000  O
  O21      1.0000 0.30296  0.93999  0.53881  Biso   1.000  O
  O22      1.0000 0.43735  0.94064  0.59706  Biso   1.000  O
  O23      1.0000 0.36297  0.52120  0.93999  Biso   1.000  O
  O24      1.0000 0.49671  0.46230  0.94064  Biso   1.000  O
  O25      1.0000 0.28178  0.00000  0.41546  Biso   1.000  O
  O26      1.0000 0.69724  0.41546  0.58454  Biso   1.000  O
  O27      1.0000 0.28178  0.58454  0.00000  Biso   1.000  O
  O28      1.0000 0.30276  0.58454  0.41546  Biso   1.000  O
  O29      1.0000 0.71822  0.00000  0.58454  Biso   1.000  O
  O30      1.0000 0.71822  0.41546  0.00000  Biso   1.000  O
