data_image0
_cell_length_a       12.7695
_cell_length_b       12.7695
_cell_length_c       17.727
_cell_angle_alpha    90
_cell_angle_beta     90
_cell_angle_gamma    120

_symmetry_space_group_name_H-M    "P 1"
_symmetry_int_tables_number       1

loop_
  _symmetry_equiv_pos_as_xyz
  'x, y, z'

loop_
  _atom_site_label
  _atom_site_occupancy
  _atom_site_fract_x
  _atom_site_fract_y
  _atom_site_fract_z
  _atom_site_thermal_displace_type
  _atom_site_B_iso_or_equiv
  _atom_site_type_symbol
  O1       1.0000 0.94060  0.34960  0.08460  Biso   1.000  O
  O2       1.0000 0.82010  0.38750  0.15440  Biso   1.000  O
  H1       1.0000 0.77720  0.44600  0.03860  Biso   1.000  H
  C1       1.0000 0.87300  0.33090  0.14050  Biso   1.000  C
  C2       1.0000 0.82400  0.20200  0.17740  Biso   1.000  C
  H2       1.0000 0.75950  0.13940  0.14770  Biso   1.000  H
  H3       1.0000 0.88810  0.18320  0.18410  Biso   1.000  H
  C3       1.0000 0.89900  0.27700  0.20970  Biso   1.000  C
  H4       1.0000 0.92100  0.21780  0.19590  Biso   1.000  H
  H5       1.0000 0.96220  0.33980  0.24030  Biso   1.000  H
  O3       1.0000 0.65040  0.59100  0.08460  Biso   1.000  O
  O4       1.0000 0.61250  0.43260  0.15440  Biso   1.000  O
  H6       1.0000 0.55400  0.33120  0.03860  Biso   1.000  H
  C4       1.0000 0.66910  0.54210  0.14050  Biso   1.000  C
  C5       1.0000 0.79800  0.62200  0.17740  Biso   1.000  C
  H7       1.0000 0.86060  0.62010  0.14770  Biso   1.000  H
  H8       1.0000 0.81680  0.70490  0.18410  Biso   1.000  H
  C6       1.0000 0.72300  0.62200  0.20970  Biso   1.000  C
  H9       1.0000 0.78220  0.70320  0.19590  Biso   1.000  H
  H10      1.0000 0.66020  0.62240  0.24030  Biso   1.000  H
  O5       1.0000 0.40900  0.05940  0.08460  Biso   1.000  O
  O6       1.0000 0.56740  0.17990  0.15440  Biso   1.000  O
  H11      1.0000 0.66880  0.22280  0.03860  Biso   1.000  H
  C7       1.0000 0.45790  0.12700  0.14050  Biso   1.000  C
  C8       1.0000 0.37800  0.17600  0.17740  Biso   1.000  C
  H12      1.0000 0.37990  0.24050  0.14770  Biso   1.000  H
  H13      1.0000 0.29510  0.11190  0.18410  Biso   1.000  H
  C9       1.0000 0.37800  0.10100  0.20970  Biso   1.000  C
  H14      1.0000 0.29680  0.07900  0.19590  Biso   1.000  H
  H15      1.0000 0.37760  0.03780  0.24030  Biso   1.000  H
  O7       1.0000 0.05940  0.65040  0.08460  Biso   1.000  O
  O8       1.0000 0.17990  0.61250  0.15440  Biso   1.000  O
  H16      1.0000 0.22280  0.55400  0.03860  Biso   1.000  H
  C10      1.0000 0.12700  0.66910  0.14050  Biso   1.000  C
  C11      1.0000 0.17600  0.79800  0.17740  Biso   1.000  C
  H17      1.0000 0.24050  0.86060  0.14770  Biso   1.000  H
  H18      1.0000 0.11190  0.81680  0.18410  Biso   1.000  H
  C12      1.0000 0.10100  0.72300  0.20970  Biso   1.000  C
  H19      1.0000 0.07900  0.78220  0.19590  Biso   1.000  H
  H20      1.0000 0.03780  0.66020  0.24030  Biso   1.000  H
  O9       1.0000 0.34960  0.40900  0.08460  Biso   1.000  O
  O10      1.0000 0.38750  0.56740  0.15440  Biso   1.000  O
  H21      1.0000 0.44600  0.66880  0.03860  Biso   1.000  H
  C13      1.0000 0.33090  0.45790  0.14050  Biso   1.000  C
  C14      1.0000 0.20200  0.37800  0.17740  Biso   1.000  C
  H22      1.0000 0.13940  0.37990  0.14770  Biso   1.000  H
  H23      1.0000 0.18320  0.29510  0.18410  Biso   1.000  H
  C15      1.0000 0.27700  0.37800  0.20970  Biso   1.000  C
  H24      1.0000 0.21780  0.29680  0.19590  Biso   1.000  H
  H25      1.0000 0.33980  0.37760  0.24030  Biso   1.000  H
  O11      1.0000 0.59100  0.94060  0.08460  Biso   1.000  O
  O12      1.0000 0.43260  0.82010  0.15440  Biso   1.000  O
  H26      1.0000 0.33120  0.77720  0.03860  Biso   1.000  H
  C16      1.0000 0.54210  0.87300  0.14050  Biso   1.000  C
  C17      1.0000 0.62200  0.82400  0.17740  Biso   1.000  C
  H27      1.0000 0.62010  0.75950  0.14770  Biso   1.000  H
  H28      1.0000 0.70490  0.88810  0.18410  Biso   1.000  H
  C18      1.0000 0.62200  0.89900  0.20970  Biso   1.000  C
  H29      1.0000 0.70320  0.92100  0.19590  Biso   1.000  H
  H30      1.0000 0.62240  0.96220  0.24030  Biso   1.000  H
  O13      1.0000 0.34960  0.94060  0.41540  Biso   1.000  O
  O14      1.0000 0.38750  0.82010  0.34560  Biso   1.000  O
  H31      1.0000 0.44600  0.77720  0.46140  Biso   1.000  H
  C19      1.0000 0.33090  0.87300  0.35950  Biso   1.000  C
  C20      1.0000 0.20200  0.82400  0.32260  Biso   1.000  C
  H32      1.0000 0.13940  0.75950  0.35230  Biso   1.000  H
  H33      1.0000 0.18320  0.88810  0.31590  Biso   1.000  H
  C21      1.0000 0.27700  0.89900  0.29030  Biso   1.000  C
  H34      1.0000 0.21780  0.92100  0.30410  Biso   1.000  H
  H35      1.0000 0.33980  0.96220  0.25970  Biso   1.000  H
  O15      1.0000 0.59100  0.65040  0.41540  Biso   1.000  O
  O16      1.0000 0.43260  0.61250  0.34560  Biso   1.000  O
  H36      1.0000 0.33120  0.55400  0.46140  Biso   1.000  H
  C22      1.0000 0.54210  0.66910  0.35950  Biso   1.000  C
  C23      1.0000 0.62200  0.79800  0.32260  Biso   1.000  C
  H37      1.0000 0.62010  0.86060  0.35230  Biso   1.000  H
  H38      1.0000 0.70490  0.81680  0.31590  Biso   1.000  H
  C24      1.0000 0.62200  0.72300  0.29030  Biso   1.000  C
  H39      1.0000 0.70320  0.78220  0.30410  Biso   1.000  H
  H40      1.0000 0.62240  0.66020  0.25970  Biso   1.000  H
  O17      1.0000 0.05940  0.40900  0.41540  Biso   1.000  O
  O18      1.0000 0.17990  0.56740  0.34560  Biso   1.000  O
  H41      1.0000 0.22280  0.66880  0.46140  Biso   1.000  H
  C25      1.0000 0.12700  0.45790  0.35950  Biso   1.000  C
  C26      1.0000 0.17600  0.37800  0.32260  Biso   1.000  C
  H42      1.0000 0.24050  0.37990  0.35230  Biso   1.000  H
  H43      1.0000 0.11190  0.29510  0.31590  Biso   1.000  H
  C27      1.0000 0.10100  0.37800  0.29030  Biso   1.000  C
  H44      1.0000 0.07900  0.29680  0.30410  Biso   1.000  H
  H45      1.0000 0.03780  0.37760  0.25970  Biso   1.000  H
  O19      1.0000 0.65040  0.05940  0.41540  Biso   1.000  O
  O20      1.0000 0.61250  0.17990  0.34560  Biso   1.000  O
  H46      1.0000 0.55400  0.22280  0.46140  Biso   1.000  H
  C28      1.0000 0.66910  0.12700  0.35950  Biso   1.000  C
  C29      1.0000 0.79800  0.17600  0.32260  Biso   1.000  C
  H47      1.0000 0.86060  0.24050  0.35230  Biso   1.000  H
  H48      1.0000 0.81680  0.11190  0.31590  Biso   1.000  H
  C30      1.0000 0.72300  0.10100  0.29030  Biso   1.000  C
  H49      1.0000 0.78220  0.07900  0.30410  Biso   1.000  H
  H50      1.0000 0.66020  0.03780  0.25970  Biso   1.000  H
  O21      1.0000 0.40900  0.34960  0.41540  Biso   1.000  O
  O22      1.0000 0.56740  0.38750  0.34560  Biso   1.000  O
  H51      1.0000 0.66880  0.44600  0.46140  Biso   1.000  H
  C31      1.0000 0.45790  0.33090  0.35950  Biso   1.000  C
  C32      1.0000 0.37800  0.20200  0.32260  Biso   1.000  C
  H52      1.0000 0.37990  0.13940  0.35230  Biso   1.000  H
  H53      1.0000 0.29510  0.18320  0.31590  Biso   1.000  H
  C33      1.0000 0.37800  0.27700  0.29030  Biso   1.000  C
  H54      1.0000 0.29680  0.21780  0.30410  Biso   1.000  H
  H55      1.0000 0.37760  0.33980  0.25970  Biso   1.000  H
  O23      1.0000 0.94060  0.59100  0.41540  Biso   1.000  O
  O24      1.0000 0.82010  0.43260  0.34560  Biso   1.000  O
  H56      1.0000 0.77720  0.33120  0.46140  Biso   1.000  H
  C34      1.0000 0.87300  0.54210  0.35950  Biso   1.000  C
  C35      1.0000 0.82400  0.62200  0.32260  Biso   1.000  C
  H57      1.0000 0.75950  0.62010  0.35230  Biso   1.000  H
  H58      1.0000 0.88810  0.70490  0.31590  Biso   1.000  H
  C36      1.0000 0.89900  0.62200  0.29030  Biso   1.000  C
  H59      1.0000 0.92100  0.70320  0.30410  Biso   1.000  H
  H60      1.0000 0.96220  0.62240  0.25970  Biso   1.000  H
  O25      1.0000 0.05940  0.65040  0.91540  Biso   1.000  O
  O26      1.0000 0.17990  0.61250  0.84560  Biso   1.000  O
  H61      1.0000 0.22280  0.55400  0.96140  Biso   1.000  H
  C37      1.0000 0.12700  0.66910  0.85950  Biso   1.000  C
  C38      1.0000 0.17600  0.79800  0.82260  Biso   1.000  C
  H62      1.0000 0.24050  0.86060  0.85230  Biso   1.000  H
  H63      1.0000 0.11190  0.81680  0.81590  Biso   1.000  H
  C39      1.0000 0.10100  0.72300  0.79030  Biso   1.000  C
  H64      1.0000 0.07900  0.78220  0.80410  Biso   1.000  H
  H65      1.0000 0.03780  0.66020  0.75970  Biso   1.000  H
  O27      1.0000 0.34960  0.40900  0.91540  Biso   1.000  O
  O28      1.0000 0.38750  0.56740  0.84560  Biso   1.000  O
  H66      1.0000 0.44600  0.66880  0.96140  Biso   1.000  H
  C40      1.0000 0.33090  0.45790  0.85950  Biso   1.000  C
  C41      1.0000 0.20200  0.37800  0.82260  Biso   1.000  C
  H67      1.0000 0.13940  0.37990  0.85230  Biso   1.000  H
  H68      1.0000 0.18320  0.29510  0.81590  Biso   1.000  H
  C42      1.0000 0.27700  0.37800  0.79030  Biso   1.000  C
  H69      1.0000 0.21780  0.29680  0.80410  Biso   1.000  H
  H70      1.0000 0.33980  0.37760  0.75970  Biso   1.000  H
  O29      1.0000 0.59100  0.94060  0.91540  Biso   1.000  O
  O30      1.0000 0.43260  0.82010  0.84560  Biso   1.000  O
  H71      1.0000 0.33120  0.77720  0.96140  Biso   1.000  H
  C43      1.0000 0.54210  0.87300  0.85950  Biso   1.000  C
  C44      1.0000 0.62200  0.82400  0.82260  Biso   1.000  C
  H72      1.0000 0.62010  0.75950  0.85230  Biso   1.000  H
  H73      1.0000 0.70490  0.88810  0.81590  Biso   1.000  H
  C45      1.0000 0.62200  0.89900  0.79030  Biso   1.000  C
  H74      1.0000 0.70320  0.92100  0.80410  Biso   1.000  H
  H75      1.0000 0.62240  0.96220  0.75970  Biso   1.000  H
  O31      1.0000 0.94060  0.34960  0.91540  Biso   1.000  O
  O32      1.0000 0.82010  0.38750  0.84560  Biso   1.000  O
  H76      1.0000 0.77720  0.44600  0.96140  Biso   1.000  H
  C46      1.0000 0.87300  0.33090  0.85950  Biso   1.000  C
  C47      1.0000 0.82400  0.20200  0.82260  Biso   1.000  C
  H77      1.0000 0.75950  0.13940  0.85230  Biso   1.000  H
  H78      1.0000 0.88810  0.18320  0.81590  Biso   1.000  H
  C48      1.0000 0.89900  0.27700  0.79030  Biso   1.000  C
  H79      1.0000 0.92100  0.21780  0.80410  Biso   1.000  H
  H80      1.0000 0.96220  0.33980  0.75970  Biso   1.000  H
  O33      1.0000 0.65040  0.59100  0.91540  Biso   1.000  O
  O34      1.0000 0.61250  0.43260  0.84560  Biso   1.000  O
  H81      1.0000 0.55400  0.33120  0.96140  Biso   1.000  H
  C49      1.0000 0.66910  0.54210  0.85950  Biso   1.000  C
  C50      1.0000 0.79800  0.62200  0.82260  Biso   1.000  C
  H82      1.0000 0.86060  0.62010  0.85230  Biso   1.000  H
  H83      1.0000 0.81680  0.70490  0.81590  Biso   1.000  H
  C51      1.0000 0.72300  0.62200  0.79030  Biso   1.000  C
  H84      1.0000 0.78220  0.70320  0.80410  Biso   1.000  H
  H85      1.0000 0.66020  0.62240  0.75970  Biso   1.000  H
  O35      1.0000 0.40900  0.05940  0.91540  Biso   1.000  O
  O36      1.0000 0.56740  0.17990  0.84560  Biso   1.000  O
  H86      1.0000 0.66880  0.22280  0.96140  Biso   1.000  H
  C52      1.0000 0.45790  0.12700  0.85950  Biso   1.000  C
  C53      1.0000 0.37800  0.17600  0.82260  Biso   1.000  C
  H87      1.0000 0.37990  0.24050  0.85230  Biso   1.000  H
  H88      1.0000 0.29510  0.11190  0.81590  Biso   1.000  H
  C54      1.0000 0.37800  0.10100  0.79030  Biso   1.000  C
  H89      1.0000 0.29680  0.07900  0.80410  Biso   1.000  H
  H90      1.0000 0.37760  0.03780  0.75970  Biso   1.000  H
  O37      1.0000 0.65040  0.05940  0.58460  Biso   1.000  O
  O38      1.0000 0.61250  0.17990  0.65440  Biso   1.000  O
  H91      1.0000 0.55400  0.22280  0.53860  Biso   1.000  H
  C55      1.0000 0.66910  0.12700  0.64050  Biso   1.000  C
  C56      1.0000 0.79800  0.17600  0.67740  Biso   1.000  C
  H92      1.0000 0.86060  0.24050  0.64770  Biso   1.000  H
  H93      1.0000 0.81680  0.11190  0.68410  Biso   1.000  H
  C57      1.0000 0.72300  0.10100  0.70970  Biso   1.000  C
  H94      1.0000 0.78220  0.07900  0.69590  Biso   1.000  H
  H95      1.0000 0.66020  0.03780  0.74030  Biso   1.000  H
  O39      1.0000 0.40900  0.34960  0.58460  Biso   1.000  O
  O40      1.0000 0.56740  0.38750  0.65440  Biso   1.000  O
  H96      1.0000 0.66880  0.44600  0.53860  Biso   1.000  H
  C58      1.0000 0.45790  0.33090  0.64050  Biso   1.000  C
  C59      1.0000 0.37800  0.20200  0.67740  Biso   1.000  C
  H97      1.0000 0.37990  0.13940  0.64770  Biso   1.000  H
  H98      1.0000 0.29510  0.18320  0.68410  Biso   1.000  H
  C60      1.0000 0.37800  0.27700  0.70970  Biso   1.000  C
  H99      1.0000 0.29680  0.21780  0.69590  Biso   1.000  H
  H100     1.0000 0.37760  0.33980  0.74030  Biso   1.000  H
  O41      1.0000 0.94060  0.59100  0.58460  Biso   1.000  O
  O42      1.0000 0.82010  0.43260  0.65440  Biso   1.000  O
  H101     1.0000 0.77720  0.33120  0.53860  Biso   1.000  H
  C61      1.0000 0.87300  0.54210  0.64050  Biso   1.000  C
  C62      1.0000 0.82400  0.62200  0.67740  Biso   1.000  C
  H102     1.0000 0.75950  0.62010  0.64770  Biso   1.000  H
  H103     1.0000 0.88810  0.70490  0.68410  Biso   1.000  H
  C63      1.0000 0.89900  0.62200  0.70970  Biso   1.000  C
  H104     1.0000 0.92100  0.70320  0.69590  Biso   1.000  H
  H105     1.0000 0.96220  0.62240  0.74030  Biso   1.000  H
  O43      1.0000 0.34960  0.94060  0.58460  Biso   1.000  O
  O44      1.0000 0.38750  0.82010  0.65440  Biso   1.000  O
  H106     1.0000 0.44600  0.77720  0.53860  Biso   1.000  H
  C64      1.0000 0.33090  0.87300  0.64050  Biso   1.000  C
  C65      1.0000 0.20200  0.82400  0.67740  Biso   1.000  C
  H107     1.0000 0.13940  0.75950  0.64770  Biso   1.000  H
  H108     1.0000 0.18320  0.88810  0.68410  Biso   1.000  H
  C66      1.0000 0.27700  0.89900  0.70970  Biso   1.000  C
  H109     1.0000 0.21780  0.92100  0.69590  Biso   1.000  H
  H110     1.0000 0.33980  0.96220  0.74030  Biso   1.000  H
  O45      1.0000 0.59100  0.65040  0.58460  Biso   1.000  O
  O46      1.0000 0.43260  0.61250  0.65440  Biso   1.000  O
  H111     1.0000 0.33120  0.55400  0.53860  Biso   1.000  H
  C67      1.0000 0.54210  0.66910  0.64050  Biso   1.000  C
  C68      1.0000 0.62200  0.79800  0.67740  Biso   1.000  C
  H112     1.0000 0.62010  0.86060  0.64770  Biso   1.000  H
  H113     1.0000 0.70490  0.81680  0.68410  Biso   1.000  H
  C69      1.0000 0.62200  0.72300  0.70970  Biso   1.000  C
  H114     1.0000 0.70320  0.78220  0.69590  Biso   1.000  H
  H115     1.0000 0.62240  0.66020  0.74030  Biso   1.000  H
  O47      1.0000 0.05940  0.40900  0.58460  Biso   1.000  O
  O48      1.0000 0.17990  0.56740  0.65440  Biso   1.000  O
  H116     1.0000 0.22280  0.66880  0.53860  Biso   1.000  H
  C70      1.0000 0.12700  0.45790  0.64050  Biso   1.000  C
  C71      1.0000 0.17600  0.37800  0.67740  Biso   1.000  C
  H117     1.0000 0.24050  0.37990  0.64770  Biso   1.000  H
  H118     1.0000 0.11190  0.29510  0.68410  Biso   1.000  H
  C72      1.0000 0.10100  0.37800  0.70970  Biso   1.000  C
  H119     1.0000 0.07900  0.29680  0.69590  Biso   1.000  H
  H120     1.0000 0.03780  0.37760  0.74030  Biso   1.000  H
  Eu1      1.0000 0.66667  0.33333  0.25000  Biso   1.000  Eu
  Eu2      1.0000 0.33333  0.66667  0.25000  Biso   1.000  Eu
  Eu3      1.0000 0.33333  0.66667  0.75000  Biso   1.000  Eu
  Eu4      1.0000 0.66667  0.33333  0.75000  Biso   1.000  Eu
  Cd1      1.0000 0.00000  0.50000  0.00000  Biso   1.000  Cd
  Cd2      1.0000 0.50000  0.50000  0.00000  Biso   1.000  Cd
  Cd3      1.0000 0.50000  0.00000  0.00000  Biso   1.000  Cd
  Cd4      1.0000 0.50000  0.00000  0.50000  Biso   1.000  Cd
  Cd5      1.0000 0.50000  0.50000  0.50000  Biso   1.000  Cd
  Cd6      1.0000 0.00000  0.50000  0.50000  Biso   1.000  Cd
  O49      1.0000 0.77980  0.22020  0.25000  Biso   1.000  O
  O50      1.0000 0.77980  0.55960  0.25000  Biso   1.000  O
  O51      1.0000 0.44040  0.22020  0.25000  Biso   1.000  O
  O52      1.0000 0.22020  0.77980  0.25000  Biso   1.000  O
  O53      1.0000 0.22020  0.44040  0.25000  Biso   1.000  O
  O54      1.0000 0.55960  0.77980  0.25000  Biso   1.000  O
  O55      1.0000 0.22020  0.77980  0.75000  Biso   1.000  O
  O56      1.0000 0.22020  0.44040  0.75000  Biso   1.000  O
  O57      1.0000 0.55960  0.77980  0.75000  Biso   1.000  O
  O58      1.0000 0.77980  0.22020  0.75000  Biso   1.000  O
  O59      1.0000 0.77980  0.55960  0.75000  Biso   1.000  O
  O60      1.0000 0.44040  0.22020  0.75000  Biso   1.000  O
  O61      1.0000 0.81560  0.48640  0.00000  Biso   1.000  O
  O62      1.0000 0.51360  0.32920  0.00000  Biso   1.000  O
  O63      1.0000 0.67080  0.18440  0.00000  Biso   1.000  O
  O64      1.0000 0.18440  0.51360  0.00000  Biso   1.000  O
  O65      1.0000 0.48640  0.67080  0.00000  Biso   1.000  O
  O66      1.0000 0.32920  0.81560  0.00000  Biso   1.000  O
  O67      1.0000 0.48640  0.81560  0.50000  Biso   1.000  O
  O68      1.0000 0.32920  0.51360  0.50000  Biso   1.000  O
  O69      1.0000 0.18440  0.67080  0.50000  Biso   1.000  O
  O70      1.0000 0.51360  0.18440  0.50000  Biso   1.000  O
  O71      1.0000 0.67080  0.48640  0.50000  Biso   1.000  O
  O72      1.0000 0.81560  0.32920  0.50000  Biso   1.000  O
