data_image0
_cell_length_a       32.3599
_cell_length_b       32.3599
_cell_length_c       38.4521
_cell_angle_alpha    65.1161
_cell_angle_beta     65.1161
_cell_angle_gamma    60

_symmetry_space_group_name_H-M    P 1
_symmetry_int_tables_number       1

loop_
  _symmetry_equiv_pos_as_xyz
  'x, y, z'

loop_
  _atom_site_label
  _atom_site_occupancy
  _atom_site_fract_x
  _atom_site_fract_y
  _atom_site_fract_z
  _atom_site_thermal_displace_type
  _atom_site_B_iso_or_equiv
  _atom_site_type_symbol
  Zn1      1.0000 0.78708  0.82005  0.49724  Biso   1.000  Zn
  Zn2      1.0000 0.82005  0.89563  0.49724  Biso   1.000  Zn
  Zn3      1.0000 0.89563  0.78708  0.49724  Biso   1.000  Zn
  Zn4      1.0000 0.71292  0.60437  0.00276  Biso   1.000  Zn
  Zn5      1.0000 0.67995  0.71292  0.00276  Biso   1.000  Zn
  Zn6      1.0000 0.60437  0.67995  0.00276  Biso   1.000  Zn
  Zn7      1.0000 0.21292  0.17995  0.50276  Biso   1.000  Zn
  Zn8      1.0000 0.17995  0.10437  0.50276  Biso   1.000  Zn
  Zn9      1.0000 0.10437  0.21292  0.50276  Biso   1.000  Zn
  Zn10     1.0000 0.28708  0.39563  0.99724  Biso   1.000  Zn
  Zn11     1.0000 0.32005  0.28708  0.99724  Biso   1.000  Zn
  Zn12     1.0000 0.39563  0.32005  0.99724  Biso   1.000  Zn
  Zn13     1.0000 0.85937  0.85937  0.42189  Biso   1.000  Zn
  Zn14     1.0000 0.64063  0.64063  0.07811  Biso   1.000  Zn
  Zn15     1.0000 0.14063  0.14063  0.57811  Biso   1.000  Zn
  Zn16     1.0000 0.35937  0.35937  0.92189  Biso   1.000  Zn
  H1       1.0000 0.77020  0.87340  0.35990  Biso   1.000  H
  H2       1.0000 0.71270  0.83040  0.41630  Biso   1.000  H
  H3       1.0000 0.73380  0.90890  0.30650  Biso   1.000  H
  H4       1.0000 0.68560  0.92290  0.26870  Biso   1.000  H
  H5       1.0000 0.66490  0.82620  0.39950  Biso   1.000  H
  H6       1.0000 0.64140  0.92420  0.23690  Biso   1.000  H
  H7       1.0000 0.60620  0.95800  0.26690  Biso   1.000  H
  H8       1.0000 0.48640  0.94720  0.28130  Biso   1.000  H
  H9       1.0000 0.52170  0.91140  0.30980  Biso   1.000  H
  H10      1.0000 0.44140  0.94820  0.34130  Biso   1.000  H
  H11      1.0000 0.37000  0.97930  0.38930  Biso   1.000  H
  H12      1.0000 0.40710  0.09060  0.36860  Biso   1.000  H
  H13      1.0000 0.51630  0.11230  0.29480  Biso   1.000  H
  H14      1.0000 0.47920  0.11070  0.33740  Biso   1.000  H
  H15      1.0000 0.45910  0.13460  0.29990  Biso   1.000  H
  H16      1.0000 0.31090  0.04330  0.42920  Biso   1.000  H
  H17      1.0000 0.35120  0.10570  0.41090  Biso   1.000  H
  H18      1.0000 0.57950  0.78410  0.42080  Biso   1.000  H
  H19      1.0000 0.57520  0.83370  0.42260  Biso   1.000  H
  H20      1.0000 0.62530  0.78730  0.42260  Biso   1.000  H
  H21      1.0000 0.87340  0.99650  0.35990  Biso   1.000  H
  H22      1.0000 0.83040  0.04060  0.41630  Biso   1.000  H
  H23      1.0000 0.90890  0.05080  0.30650  Biso   1.000  H
  H24      1.0000 0.92290  0.12280  0.26870  Biso   1.000  H
  H25      1.0000 0.82620  0.10940  0.39950  Biso   1.000  H
  H26      1.0000 0.92420  0.19750  0.23690  Biso   1.000  H
  H27      1.0000 0.95800  0.16890  0.26690  Biso   1.000  H
  H28      1.0000 0.94720  0.28510  0.28130  Biso   1.000  H
  H29      1.0000 0.91140  0.25710  0.30980  Biso   1.000  H
  H30      1.0000 0.94820  0.26910  0.34130  Biso   1.000  H
  H31      1.0000 0.97930  0.26140  0.38930  Biso   1.000  H
  H32      1.0000 0.09060  0.13370  0.36860  Biso   1.000  H
  H33      1.0000 0.11230  0.07660  0.29480  Biso   1.000  H
  H34      1.0000 0.11070  0.07270  0.33740  Biso   1.000  H
  H35      1.0000 0.13460  0.10640  0.29990  Biso   1.000  H
  H36      1.0000 0.04330  0.21660  0.42920  Biso   1.000  H
  H37      1.0000 0.10570  0.13220  0.41090  Biso   1.000  H
  H38      1.0000 0.78410  0.21560  0.42080  Biso   1.000  H
  H39      1.0000 0.83370  0.16850  0.42260  Biso   1.000  H
  H40      1.0000 0.78730  0.16480  0.42260  Biso   1.000  H
  H41      1.0000 0.99650  0.77020  0.35990  Biso   1.000  H
  H42      1.0000 0.04060  0.71270  0.41630  Biso   1.000  H
  H43      1.0000 0.05080  0.73380  0.30650  Biso   1.000  H
  H44      1.0000 0.12280  0.68560  0.26870  Biso   1.000  H
  H45      1.0000 0.10940  0.66490  0.39950  Biso   1.000  H
  H46      1.0000 0.19750  0.64140  0.23690  Biso   1.000  H
  H47      1.0000 0.16890  0.60620  0.26690  Biso   1.000  H
  H48      1.0000 0.28510  0.48640  0.28130  Biso   1.000  H
  H49      1.0000 0.25710  0.52170  0.30980  Biso   1.000  H
  H50      1.0000 0.26910  0.44140  0.34130  Biso   1.000  H
  H51      1.0000 0.26140  0.37000  0.38930  Biso   1.000  H
  H52      1.0000 0.13370  0.40710  0.36860  Biso   1.000  H
  H53      1.0000 0.07660  0.51630  0.29480  Biso   1.000  H
  H54      1.0000 0.07270  0.47920  0.33740  Biso   1.000  H
  H55      1.0000 0.10640  0.45910  0.29990  Biso   1.000  H
  H56      1.0000 0.21660  0.31090  0.42920  Biso   1.000  H
  H57      1.0000 0.13220  0.35120  0.41090  Biso   1.000  H
  H58      1.0000 0.21560  0.57950  0.42080  Biso   1.000  H
  H59      1.0000 0.16850  0.57520  0.42260  Biso   1.000  H
  H60      1.0000 0.16480  0.62530  0.42260  Biso   1.000  H
  H61      1.0000 0.72980  0.50350  0.14010  Biso   1.000  H
  H62      1.0000 0.78730  0.45940  0.08370  Biso   1.000  H
  H63      1.0000 0.76620  0.44920  0.19350  Biso   1.000  H
  H64      1.0000 0.81440  0.37720  0.23130  Biso   1.000  H
  H65      1.0000 0.83510  0.39060  0.10050  Biso   1.000  H
  H66      1.0000 0.85860  0.30250  0.26310  Biso   1.000  H
  H67      1.0000 0.89380  0.33110  0.23310  Biso   1.000  H
  H68      1.0000 0.01360  0.21490  0.21870  Biso   1.000  H
  H69      1.0000 0.97830  0.24290  0.19020  Biso   1.000  H
  H70      1.0000 0.05860  0.23090  0.15870  Biso   1.000  H
  H71      1.0000 0.13000  0.23860  0.11070  Biso   1.000  H
  H72      1.0000 0.09290  0.36630  0.13140  Biso   1.000  H
  H73      1.0000 0.98370  0.42340  0.20520  Biso   1.000  H
  H74      1.0000 0.02080  0.42730  0.16260  Biso   1.000  H
  H75      1.0000 0.04090  0.39360  0.20010  Biso   1.000  H
  H76      1.0000 0.18910  0.28340  0.07080  Biso   1.000  H
  H77      1.0000 0.14880  0.36780  0.08910  Biso   1.000  H
  H78      1.0000 0.92050  0.28440  0.07920  Biso   1.000  H
  H79      1.0000 0.92480  0.33150  0.07740  Biso   1.000  H
  H80      1.0000 0.87470  0.33520  0.07740  Biso   1.000  H
  H81      1.0000 0.62660  0.72980  0.14010  Biso   1.000  H
  H82      1.0000 0.66960  0.78730  0.08370  Biso   1.000  H
  H83      1.0000 0.59110  0.76620  0.19350  Biso   1.000  H
  H84      1.0000 0.57710  0.81440  0.23130  Biso   1.000  H
  H85      1.0000 0.67380  0.83510  0.10050  Biso   1.000  H
  H86      1.0000 0.57580  0.85860  0.26310  Biso   1.000  H
  H87      1.0000 0.54200  0.89380  0.23310  Biso   1.000  H
  H88      1.0000 0.55280  0.01360  0.21870  Biso   1.000  H
  H89      1.0000 0.58860  0.97830  0.19020  Biso   1.000  H
  H90      1.0000 0.55180  0.05860  0.15870  Biso   1.000  H
  H91      1.0000 0.52070  0.13000  0.11070  Biso   1.000  H
  H92      1.0000 0.40940  0.09290  0.13140  Biso   1.000  H
  H93      1.0000 0.38770  0.98370  0.20520  Biso   1.000  H
  H94      1.0000 0.38930  0.02080  0.16260  Biso   1.000  H
  H95      1.0000 0.36540  0.04090  0.20010  Biso   1.000  H
  H96      1.0000 0.45670  0.18910  0.07080  Biso   1.000  H
  H97      1.0000 0.39430  0.14880  0.08910  Biso   1.000  H
  H98      1.0000 0.71590  0.92050  0.07920  Biso   1.000  H
  H99      1.0000 0.66630  0.92480  0.07740  Biso   1.000  H
  H100     1.0000 0.71270  0.87470  0.07740  Biso   1.000  H
  H101     1.0000 0.50350  0.62660  0.14010  Biso   1.000  H
  H102     1.0000 0.45940  0.66960  0.08370  Biso   1.000  H
  H103     1.0000 0.44920  0.59110  0.19350  Biso   1.000  H
  H104     1.0000 0.37720  0.57710  0.23130  Biso   1.000  H
  H105     1.0000 0.39060  0.67380  0.10050  Biso   1.000  H
  H106     1.0000 0.30250  0.57580  0.26310  Biso   1.000  H
  H107     1.0000 0.33110  0.54200  0.23310  Biso   1.000  H
  H108     1.0000 0.21490  0.55280  0.21870  Biso   1.000  H
  H109     1.0000 0.24290  0.58860  0.19020  Biso   1.000  H
  H110     1.0000 0.23090  0.55180  0.15870  Biso   1.000  H
  H111     1.0000 0.23860  0.52070  0.11070  Biso   1.000  H
  H112     1.0000 0.36630  0.40940  0.13140  Biso   1.000  H
  H113     1.0000 0.42340  0.38770  0.20520  Biso   1.000  H
  H114     1.0000 0.42730  0.38930  0.16260  Biso   1.000  H
  H115     1.0000 0.39360  0.36540  0.20010  Biso   1.000  H
  H116     1.0000 0.28340  0.45670  0.07080  Biso   1.000  H
  H117     1.0000 0.36780  0.39430  0.08910  Biso   1.000  H
  H118     1.0000 0.28440  0.71590  0.07920  Biso   1.000  H
  H119     1.0000 0.33150  0.66630  0.07740  Biso   1.000  H
  H120     1.0000 0.33520  0.71270  0.07740  Biso   1.000  H
  H121     1.0000 0.22980  0.12660  0.64010  Biso   1.000  H
  H122     1.0000 0.28730  0.16960  0.58370  Biso   1.000  H
  H123     1.0000 0.26620  0.09110  0.69350  Biso   1.000  H
  H124     1.0000 0.31440  0.07710  0.73130  Biso   1.000  H
  H125     1.0000 0.33510  0.17380  0.60050  Biso   1.000  H
  H126     1.0000 0.35860  0.07580  0.76310  Biso   1.000  H
  H127     1.0000 0.39380  0.04200  0.73310  Biso   1.000  H
  H128     1.0000 0.51360  0.05280  0.71870  Biso   1.000  H
  H129     1.0000 0.47830  0.08860  0.69020  Biso   1.000  H
  H130     1.0000 0.55860  0.05180  0.65870  Biso   1.000  H
  H131     1.0000 0.63000  0.02070  0.61070  Biso   1.000  H
  H132     1.0000 0.59290  0.90940  0.63140  Biso   1.000  H
  H133     1.0000 0.48370  0.88770  0.70520  Biso   1.000  H
  H134     1.0000 0.52080  0.88930  0.66260  Biso   1.000  H
  H135     1.0000 0.54090  0.86540  0.70010  Biso   1.000  H
  H136     1.0000 0.68910  0.95670  0.57080  Biso   1.000  H
  H137     1.0000 0.64880  0.89430  0.58910  Biso   1.000  H
  H138     1.0000 0.42050  0.21590  0.57920  Biso   1.000  H
  H139     1.0000 0.42480  0.16630  0.57740  Biso   1.000  H
  H140     1.0000 0.37470  0.21270  0.57740  Biso   1.000  H
  H141     1.0000 0.12660  0.00350  0.64010  Biso   1.000  H
  H142     1.0000 0.16960  0.95940  0.58370  Biso   1.000  H
  H143     1.0000 0.09110  0.94920  0.69350  Biso   1.000  H
  H144     1.0000 0.07710  0.87720  0.73130  Biso   1.000  H
  H145     1.0000 0.17380  0.89060  0.60050  Biso   1.000  H
  H146     1.0000 0.07580  0.80250  0.76310  Biso   1.000  H
  H147     1.0000 0.04200  0.83110  0.73310  Biso   1.000  H
  H148     1.0000 0.05280  0.71490  0.71870  Biso   1.000  H
  H149     1.0000 0.08860  0.74290  0.69020  Biso   1.000  H
  H150     1.0000 0.05180  0.73090  0.65870  Biso   1.000  H
  H151     1.0000 0.02070  0.73860  0.61070  Biso   1.000  H
  H152     1.0000 0.90940  0.86630  0.63140  Biso   1.000  H
  H153     1.0000 0.88770  0.92340  0.70520  Biso   1.000  H
  H154     1.0000 0.88930  0.92730  0.66260  Biso   1.000  H
  H155     1.0000 0.86540  0.89360  0.70010  Biso   1.000  H
  H156     1.0000 0.95670  0.78340  0.57080  Biso   1.000  H
  H157     1.0000 0.89430  0.86780  0.58910  Biso   1.000  H
  H158     1.0000 0.21590  0.78440  0.57920  Biso   1.000  H
  H159     1.0000 0.16630  0.83150  0.57740  Biso   1.000  H
  H160     1.0000 0.21270  0.83520  0.57740  Biso   1.000  H
  H161     1.0000 0.00350  0.22980  0.64010  Biso   1.000  H
  H162     1.0000 0.95940  0.28730  0.58370  Biso   1.000  H
  H163     1.0000 0.94920  0.26620  0.69350  Biso   1.000  H
  H164     1.0000 0.87720  0.31440  0.73130  Biso   1.000  H
  H165     1.0000 0.89060  0.33510  0.60050  Biso   1.000  H
  H166     1.0000 0.80250  0.35860  0.76310  Biso   1.000  H
  H167     1.0000 0.83110  0.39380  0.73310  Biso   1.000  H
  H168     1.0000 0.71490  0.51360  0.71870  Biso   1.000  H
  H169     1.0000 0.74290  0.47830  0.69020  Biso   1.000  H
  H170     1.0000 0.73090  0.55860  0.65870  Biso   1.000  H
  H171     1.0000 0.73860  0.63000  0.61070  Biso   1.000  H
  H172     1.0000 0.86630  0.59290  0.63140  Biso   1.000  H
  H173     1.0000 0.92340  0.48370  0.70520  Biso   1.000  H
  H174     1.0000 0.92730  0.52080  0.66260  Biso   1.000  H
  H175     1.0000 0.89360  0.54090  0.70010  Biso   1.000  H
  H176     1.0000 0.78340  0.68910  0.57080  Biso   1.000  H
  H177     1.0000 0.86780  0.64880  0.58910  Biso   1.000  H
  H178     1.0000 0.78440  0.42050  0.57920  Biso   1.000  H
  H179     1.0000 0.83150  0.42480  0.57740  Biso   1.000  H
  H180     1.0000 0.83520  0.37470  0.57740  Biso   1.000  H
  H181     1.0000 0.27020  0.49650  0.85990  Biso   1.000  H
  H182     1.0000 0.21270  0.54060  0.91630  Biso   1.000  H
  H183     1.0000 0.23380  0.55080  0.80650  Biso   1.000  H
  H184     1.0000 0.18560  0.62280  0.76870  Biso   1.000  H
  H185     1.0000 0.16490  0.60940  0.89950  Biso   1.000  H
  H186     1.0000 0.14140  0.69750  0.73690  Biso   1.000  H
  H187     1.0000 0.10620  0.66890  0.76690  Biso   1.000  H
  H188     1.0000 0.98640  0.78510  0.78130  Biso   1.000  H
  H189     1.0000 0.02170  0.75710  0.80980  Biso   1.000  H
  H190     1.0000 0.94140  0.76910  0.84130  Biso   1.000  H
  H191     1.0000 0.87000  0.76140  0.88930  Biso   1.000  H
  H192     1.0000 0.90710  0.63370  0.86860  Biso   1.000  H
  H193     1.0000 0.01630  0.57660  0.79480  Biso   1.000  H
  H194     1.0000 0.97920  0.57270  0.83740  Biso   1.000  H
  H195     1.0000 0.95910  0.60640  0.79990  Biso   1.000  H
  H196     1.0000 0.81090  0.71660  0.92920  Biso   1.000  H
  H197     1.0000 0.85120  0.63220  0.91090  Biso   1.000  H
  H198     1.0000 0.07950  0.71560  0.92080  Biso   1.000  H
  H199     1.0000 0.07520  0.66850  0.92260  Biso   1.000  H
  H200     1.0000 0.12530  0.66480  0.92260  Biso   1.000  H
  H201     1.0000 0.37340  0.27020  0.85990  Biso   1.000  H
  H202     1.0000 0.33040  0.21270  0.91630  Biso   1.000  H
  H203     1.0000 0.40890  0.23380  0.80650  Biso   1.000  H
  H204     1.0000 0.42290  0.18560  0.76870  Biso   1.000  H
  H205     1.0000 0.32620  0.16490  0.89950  Biso   1.000  H
  H206     1.0000 0.42420  0.14140  0.73690  Biso   1.000  H
  H207     1.0000 0.45800  0.10620  0.76690  Biso   1.000  H
  H208     1.0000 0.44720  0.98640  0.78130  Biso   1.000  H
  H209     1.0000 0.41140  0.02170  0.80980  Biso   1.000  H
  H210     1.0000 0.44820  0.94140  0.84130  Biso   1.000  H
  H211     1.0000 0.47930  0.87000  0.88930  Biso   1.000  H
  H212     1.0000 0.59060  0.90710  0.86860  Biso   1.000  H
  H213     1.0000 0.61230  0.01630  0.79480  Biso   1.000  H
  H214     1.0000 0.61070  0.97920  0.83740  Biso   1.000  H
  H215     1.0000 0.63460  0.95910  0.79990  Biso   1.000  H
  H216     1.0000 0.54330  0.81090  0.92920  Biso   1.000  H
  H217     1.0000 0.60570  0.85120  0.91090  Biso   1.000  H
  H218     1.0000 0.28410  0.07950  0.92080  Biso   1.000  H
  H219     1.0000 0.33370  0.07520  0.92260  Biso   1.000  H
  H220     1.0000 0.28730  0.12530  0.92260  Biso   1.000  H
  H221     1.0000 0.49650  0.37340  0.85990  Biso   1.000  H
  H222     1.0000 0.54060  0.33040  0.91630  Biso   1.000  H
  H223     1.0000 0.55080  0.40890  0.80650  Biso   1.000  H
  H224     1.0000 0.62280  0.42290  0.76870  Biso   1.000  H
  H225     1.0000 0.60940  0.32620  0.89950  Biso   1.000  H
  H226     1.0000 0.69750  0.42420  0.73690  Biso   1.000  H
  H227     1.0000 0.66890  0.45800  0.76690  Biso   1.000  H
  H228     1.0000 0.78510  0.44720  0.78130  Biso   1.000  H
  H229     1.0000 0.75710  0.41140  0.80980  Biso   1.000  H
  H230     1.0000 0.76910  0.44820  0.84130  Biso   1.000  H
  H231     1.0000 0.76140  0.47930  0.88930  Biso   1.000  H
  H232     1.0000 0.63370  0.59060  0.86860  Biso   1.000  H
  H233     1.0000 0.57660  0.61230  0.79480  Biso   1.000  H
  H234     1.0000 0.57270  0.61070  0.83740  Biso   1.000  H
  H235     1.0000 0.60640  0.63460  0.79990  Biso   1.000  H
  H236     1.0000 0.71660  0.54330  0.92920  Biso   1.000  H
  H237     1.0000 0.63220  0.60570  0.91090  Biso   1.000  H
  H238     1.0000 0.71560  0.28410  0.92080  Biso   1.000  H
  H239     1.0000 0.66850  0.33370  0.92260  Biso   1.000  H
  H240     1.0000 0.66480  0.28730  0.92260  Biso   1.000  H
  C1       1.0000 0.77670  0.85060  0.41840  Biso   1.000  C
  C2       1.0000 0.75625  0.85895  0.38585  Biso   1.000  C
  C3       1.0000 0.72506  0.84876  0.39152  Biso   1.000  C
  C4       1.0000 0.70414  0.86614  0.35678  Biso   1.000  C
  C5       1.0000 0.71030  0.89510  0.31760  Biso   1.000  C
  C6       1.0000 0.68141  0.90341  0.29507  Biso   1.000  C
  C7       1.0000 0.64637  0.88277  0.31169  Biso   1.000  C
  C8       1.0000 0.64010  0.85380  0.35090  Biso   1.000  C
  C9       1.0000 0.66900  0.84560  0.37340  Biso   1.000  C
  C10      1.0000 0.61195  0.93025  0.25925  Biso   1.000  C
  C11      1.0000 0.51521  0.94101  0.28787  Biso   1.000  C
  C12      1.0000 0.46689  0.00079  0.32633  Biso   1.000  C
  C13      1.0000 0.43446  0.97676  0.34682  Biso   1.000  C
  C14      1.0000 0.39180  0.99530  0.37550  Biso   1.000  C
  C15      1.0000 0.38157  0.03787  0.38369  Biso   1.000  C
  C16      1.0000 0.41400  0.06190  0.36320  Biso   1.000  C
  C17      1.0000 0.45666  0.04336  0.33452  Biso   1.000  C
  C18      1.0000 0.48560  0.10870  0.31130  Biso   1.000  C
  C19      1.0000 0.33371  0.05801  0.41597  Biso   1.000  C
  C20      1.0000 0.32888  0.09058  0.42206  Biso   1.000  C
  C21      1.0000 0.27954  0.10644  0.45158  Biso   1.000  C
  C22      1.0000 0.59670  0.80500  0.41270  Biso   1.000  C
  C23      1.0000 0.85060  0.95430  0.41840  Biso   1.000  C
  C24      1.0000 0.85895  0.99895  0.38585  Biso   1.000  C
  C25      1.0000 0.84876  0.03466  0.39152  Biso   1.000  C
  C26      1.0000 0.86614  0.07294  0.35678  Biso   1.000  C
  C27      1.0000 0.89510  0.07700  0.31760  Biso   1.000  C
  C28      1.0000 0.90341  0.12011  0.29507  Biso   1.000  C
  C29      1.0000 0.88277  0.15917  0.31169  Biso   1.000  C
  C30      1.0000 0.85380  0.15520  0.35090  Biso   1.000  C
  C31      1.0000 0.84560  0.11200  0.37340  Biso   1.000  C
  C32      1.0000 0.93025  0.19855  0.25925  Biso   1.000  C
  C33      1.0000 0.94101  0.25591  0.28787  Biso   1.000  C
  C34      1.0000 0.00079  0.20599  0.32633  Biso   1.000  C
  C35      1.0000 0.97676  0.24196  0.34682  Biso   1.000  C
  C36      1.0000 0.99530  0.23740  0.37550  Biso   1.000  C
  C37      1.0000 0.03787  0.19687  0.38369  Biso   1.000  C
  C38      1.0000 0.06190  0.16090  0.36320  Biso   1.000  C
  C39      1.0000 0.04336  0.16546  0.33452  Biso   1.000  C
  C40      1.0000 0.10870  0.09440  0.31130  Biso   1.000  C
  C41      1.0000 0.05801  0.19231  0.41597  Biso   1.000  C
  C42      1.0000 0.09058  0.15848  0.42206  Biso   1.000  C
  C43      1.0000 0.10644  0.16244  0.45158  Biso   1.000  C
  C44      1.0000 0.80500  0.18560  0.41270  Biso   1.000  C
  C45      1.0000 0.95430  0.77670  0.41840  Biso   1.000  C
  C46      1.0000 0.99895  0.75625  0.38585  Biso   1.000  C
  C47      1.0000 0.03466  0.72506  0.39152  Biso   1.000  C
  C48      1.0000 0.07294  0.70414  0.35678  Biso   1.000  C
  C49      1.0000 0.07700  0.71030  0.31760  Biso   1.000  C
  C50      1.0000 0.12011  0.68141  0.29507  Biso   1.000  C
  C51      1.0000 0.15917  0.64637  0.31169  Biso   1.000  C
  C52      1.0000 0.15520  0.64010  0.35090  Biso   1.000  C
  C53      1.0000 0.11200  0.66900  0.37340  Biso   1.000  C
  C54      1.0000 0.19855  0.61195  0.25925  Biso   1.000  C
  C55      1.0000 0.25591  0.51521  0.28787  Biso   1.000  C
  C56      1.0000 0.20599  0.46689  0.32633  Biso   1.000  C
  C57      1.0000 0.24196  0.43446  0.34682  Biso   1.000  C
  C58      1.0000 0.23740  0.39180  0.37550  Biso   1.000  C
  C59      1.0000 0.19687  0.38157  0.38369  Biso   1.000  C
  C60      1.0000 0.16090  0.41400  0.36320  Biso   1.000  C
  C61      1.0000 0.16546  0.45666  0.33452  Biso   1.000  C
  C62      1.0000 0.09440  0.48560  0.31130  Biso   1.000  C
  C63      1.0000 0.19231  0.33371  0.41597  Biso   1.000  C
  C64      1.0000 0.15848  0.32888  0.42206  Biso   1.000  C
  C65      1.0000 0.16244  0.27954  0.45158  Biso   1.000  C
  C66      1.0000 0.18560  0.59670  0.41270  Biso   1.000  C
  C67      1.0000 0.72330  0.54570  0.08160  Biso   1.000  C
  C68      1.0000 0.74375  0.50105  0.11415  Biso   1.000  C
  C69      1.0000 0.77494  0.46534  0.10848  Biso   1.000  C
  C70      1.0000 0.79586  0.42706  0.14322  Biso   1.000  C
  C71      1.0000 0.78970  0.42300  0.18240  Biso   1.000  C
  C72      1.0000 0.81859  0.37989  0.20493  Biso   1.000  C
  C73      1.0000 0.85363  0.34083  0.18831  Biso   1.000  C
  C74      1.0000 0.85990  0.34480  0.14910  Biso   1.000  C
  C75      1.0000 0.83100  0.38800  0.12660  Biso   1.000  C
  C76      1.0000 0.88805  0.30145  0.24075  Biso   1.000  C
  C77      1.0000 0.98479  0.24409  0.21213  Biso   1.000  C
  C78      1.0000 0.03311  0.29401  0.17367  Biso   1.000  C
  C79      1.0000 0.06554  0.25804  0.15318  Biso   1.000  C
  C80      1.0000 0.10820  0.26260  0.12450  Biso   1.000  C
  C81      1.0000 0.11843  0.30313  0.11631  Biso   1.000  C
  C82      1.0000 0.08600  0.33910  0.13680  Biso   1.000  C
  C83      1.0000 0.04334  0.33454  0.16548  Biso   1.000  C
  C84      1.0000 0.01440  0.40560  0.18870  Biso   1.000  C
  C85      1.0000 0.16629  0.30769  0.08403  Biso   1.000  C
  C86      1.0000 0.17112  0.34152  0.07794  Biso   1.000  C
  C87      1.0000 0.22046  0.33756  0.04842  Biso   1.000  C
  C88      1.0000 0.90330  0.31440  0.08730  Biso   1.000  C
  C89      1.0000 0.64940  0.72330  0.08160  Biso   1.000  C
  C90      1.0000 0.64105  0.74375  0.11415  Biso   1.000  C
  C91      1.0000 0.65124  0.77494  0.10848  Biso   1.000  C
  C92      1.0000 0.63386  0.79586  0.14322  Biso   1.000  C
  C93      1.0000 0.60490  0.78970  0.18240  Biso   1.000  C
  C94      1.0000 0.59659  0.81859  0.20493  Biso   1.000  C
  C95      1.0000 0.61723  0.85363  0.18831  Biso   1.000  C
  C96      1.0000 0.64620  0.85990  0.14910  Biso   1.000  C
  C97      1.0000 0.65440  0.83100  0.12660  Biso   1.000  C
  C98      1.0000 0.56975  0.88805  0.24075  Biso   1.000  C
  C99      1.0000 0.55899  0.98479  0.21213  Biso   1.000  C
  C100     1.0000 0.49921  0.03311  0.17367  Biso   1.000  C
  C101     1.0000 0.52324  0.06554  0.15318  Biso   1.000  C
  C102     1.0000 0.50470  0.10820  0.12450  Biso   1.000  C
  C103     1.0000 0.46213  0.11843  0.11631  Biso   1.000  C
  C104     1.0000 0.43810  0.08600  0.13680  Biso   1.000  C
  C105     1.0000 0.45664  0.04334  0.16548  Biso   1.000  C
  C106     1.0000 0.39130  0.01440  0.18870  Biso   1.000  C
  C107     1.0000 0.44199  0.16629  0.08403  Biso   1.000  C
  C108     1.0000 0.40942  0.17112  0.07794  Biso   1.000  C
  C109     1.0000 0.39356  0.22046  0.04842  Biso   1.000  C
  C110     1.0000 0.69500  0.90330  0.08730  Biso   1.000  C
  C111     1.0000 0.54570  0.64940  0.08160  Biso   1.000  C
  C112     1.0000 0.50105  0.64105  0.11415  Biso   1.000  C
  C113     1.0000 0.46534  0.65124  0.10848  Biso   1.000  C
  C114     1.0000 0.42706  0.63386  0.14322  Biso   1.000  C
  C115     1.0000 0.42300  0.60490  0.18240  Biso   1.000  C
  C116     1.0000 0.37989  0.59659  0.20493  Biso   1.000  C
  C117     1.0000 0.34083  0.61723  0.18831  Biso   1.000  C
  C118     1.0000 0.34480  0.64620  0.14910  Biso   1.000  C
  C119     1.0000 0.38800  0.65440  0.12660  Biso   1.000  C
  C120     1.0000 0.30145  0.56975  0.24075  Biso   1.000  C
  C121     1.0000 0.24409  0.55899  0.21213  Biso   1.000  C
  C122     1.0000 0.29401  0.49921  0.17367  Biso   1.000  C
  C123     1.0000 0.25804  0.52324  0.15318  Biso   1.000  C
  C124     1.0000 0.26260  0.50470  0.12450  Biso   1.000  C
  C125     1.0000 0.30313  0.46213  0.11631  Biso   1.000  C
  C126     1.0000 0.33910  0.43810  0.13680  Biso   1.000  C
  C127     1.0000 0.33454  0.45664  0.16548  Biso   1.000  C
  C128     1.0000 0.40560  0.39130  0.18870  Biso   1.000  C
  C129     1.0000 0.30769  0.44199  0.08403  Biso   1.000  C
  C130     1.0000 0.34152  0.40942  0.07794  Biso   1.000  C
  C131     1.0000 0.33756  0.39356  0.04842  Biso   1.000  C
  C132     1.0000 0.31440  0.69500  0.08730  Biso   1.000  C
  C133     1.0000 0.22330  0.14940  0.58160  Biso   1.000  C
  C134     1.0000 0.24375  0.14105  0.61415  Biso   1.000  C
  C135     1.0000 0.27494  0.15124  0.60848  Biso   1.000  C
  C136     1.0000 0.29586  0.13386  0.64322  Biso   1.000  C
  C137     1.0000 0.28970  0.10490  0.68240  Biso   1.000  C
  C138     1.0000 0.31859  0.09659  0.70493  Biso   1.000  C
  C139     1.0000 0.35363  0.11723  0.68831  Biso   1.000  C
  C140     1.0000 0.35990  0.14620  0.64910  Biso   1.000  C
  C141     1.0000 0.33100  0.15440  0.62660  Biso   1.000  C
  C142     1.0000 0.38805  0.06975  0.74075  Biso   1.000  C
  C143     1.0000 0.48479  0.05899  0.71213  Biso   1.000  C
  C144     1.0000 0.53311  0.99921  0.67367  Biso   1.000  C
  C145     1.0000 0.56554  0.02324  0.65318  Biso   1.000  C
  C146     1.0000 0.60820  0.00470  0.62450  Biso   1.000  C
  C147     1.0000 0.61843  0.96213  0.61631  Biso   1.000  C
  C148     1.0000 0.58600  0.93810  0.63680  Biso   1.000  C
  C149     1.0000 0.54334  0.95664  0.66548  Biso   1.000  C
  C150     1.0000 0.51440  0.89130  0.68870  Biso   1.000  C
  C151     1.0000 0.66629  0.94199  0.58403  Biso   1.000  C
  C152     1.0000 0.67112  0.90942  0.57794  Biso   1.000  C
  C153     1.0000 0.72046  0.89356  0.54842  Biso   1.000  C
  C154     1.0000 0.40330  0.19500  0.58730  Biso   1.000  C
  C155     1.0000 0.14940  0.04570  0.58160  Biso   1.000  C
  C156     1.0000 0.14105  0.00105  0.61415  Biso   1.000  C
  C157     1.0000 0.15124  0.96534  0.60848  Biso   1.000  C
  C158     1.0000 0.13386  0.92706  0.64322  Biso   1.000  C
  C159     1.0000 0.10490  0.92300  0.68240  Biso   1.000  C
  C160     1.0000 0.09659  0.87989  0.70493  Biso   1.000  C
  C161     1.0000 0.11723  0.84083  0.68831  Biso   1.000  C
  C162     1.0000 0.14620  0.84480  0.64910  Biso   1.000  C
  C163     1.0000 0.15440  0.88800  0.62660  Biso   1.000  C
  C164     1.0000 0.06975  0.80145  0.74075  Biso   1.000  C
  C165     1.0000 0.05899  0.74409  0.71213  Biso   1.000  C
  C166     1.0000 0.99921  0.79401  0.67367  Biso   1.000  C
  C167     1.0000 0.02324  0.75804  0.65318  Biso   1.000  C
  C168     1.0000 0.00470  0.76260  0.62450  Biso   1.000  C
  C169     1.0000 0.96213  0.80313  0.61631  Biso   1.000  C
  C170     1.0000 0.93810  0.83910  0.63680  Biso   1.000  C
  C171     1.0000 0.95664  0.83454  0.66548  Biso   1.000  C
  C172     1.0000 0.89130  0.90560  0.68870  Biso   1.000  C
  C173     1.0000 0.94199  0.80769  0.58403  Biso   1.000  C
  C174     1.0000 0.90942  0.84152  0.57794  Biso   1.000  C
  C175     1.0000 0.89356  0.83756  0.54842  Biso   1.000  C
  C176     1.0000 0.19500  0.81440  0.58730  Biso   1.000  C
  C177     1.0000 0.04570  0.22330  0.58160  Biso   1.000  C
  C178     1.0000 0.00105  0.24375  0.61415  Biso   1.000  C
  C179     1.0000 0.96534  0.27494  0.60848  Biso   1.000  C
  C180     1.0000 0.92706  0.29586  0.64322  Biso   1.000  C
  C181     1.0000 0.92300  0.28970  0.68240  Biso   1.000  C
  C182     1.0000 0.87989  0.31859  0.70493  Biso   1.000  C
  C183     1.0000 0.84083  0.35363  0.68831  Biso   1.000  C
  C184     1.0000 0.84480  0.35990  0.64910  Biso   1.000  C
  C185     1.0000 0.88800  0.33100  0.62660  Biso   1.000  C
  C186     1.0000 0.80145  0.38805  0.74075  Biso   1.000  C
  C187     1.0000 0.74409  0.48479  0.71213  Biso   1.000  C
  C188     1.0000 0.79401  0.53311  0.67367  Biso   1.000  C
  C189     1.0000 0.75804  0.56554  0.65318  Biso   1.000  C
  C190     1.0000 0.76260  0.60820  0.62450  Biso   1.000  C
  C191     1.0000 0.80313  0.61843  0.61631  Biso   1.000  C
  C192     1.0000 0.83910  0.58600  0.63680  Biso   1.000  C
  C193     1.0000 0.83454  0.54334  0.66548  Biso   1.000  C
  C194     1.0000 0.90560  0.51440  0.68870  Biso   1.000  C
  C195     1.0000 0.80769  0.66629  0.58403  Biso   1.000  C
  C196     1.0000 0.84152  0.67112  0.57794  Biso   1.000  C
  C197     1.0000 0.83756  0.72046  0.54842  Biso   1.000  C
  C198     1.0000 0.81440  0.40330  0.58730  Biso   1.000  C
  C199     1.0000 0.27670  0.45430  0.91840  Biso   1.000  C
  C200     1.0000 0.25625  0.49895  0.88585  Biso   1.000  C
  C201     1.0000 0.22506  0.53466  0.89152  Biso   1.000  C
  C202     1.0000 0.20414  0.57294  0.85678  Biso   1.000  C
  C203     1.0000 0.21030  0.57700  0.81760  Biso   1.000  C
  C204     1.0000 0.18141  0.62011  0.79507  Biso   1.000  C
  C205     1.0000 0.14637  0.65917  0.81169  Biso   1.000  C
  C206     1.0000 0.14010  0.65520  0.85090  Biso   1.000  C
  C207     1.0000 0.16900  0.61200  0.87340  Biso   1.000  C
  C208     1.0000 0.11195  0.69855  0.75925  Biso   1.000  C
  C209     1.0000 0.01521  0.75591  0.78787  Biso   1.000  C
  C210     1.0000 0.96689  0.70599  0.82633  Biso   1.000  C
  C211     1.0000 0.93446  0.74196  0.84682  Biso   1.000  C
  C212     1.0000 0.89180  0.73740  0.87550  Biso   1.000  C
  C213     1.0000 0.88157  0.69687  0.88369  Biso   1.000  C
  C214     1.0000 0.91400  0.66090  0.86320  Biso   1.000  C
  C215     1.0000 0.95666  0.66546  0.83452  Biso   1.000  C
  C216     1.0000 0.98560  0.59440  0.81130  Biso   1.000  C
  C217     1.0000 0.83371  0.69231  0.91597  Biso   1.000  C
  C218     1.0000 0.82888  0.65848  0.92206  Biso   1.000  C
  C219     1.0000 0.77954  0.66244  0.95158  Biso   1.000  C
  C220     1.0000 0.09670  0.68560  0.91270  Biso   1.000  C
  C221     1.0000 0.35060  0.27670  0.91840  Biso   1.000  C
  C222     1.0000 0.35895  0.25625  0.88585  Biso   1.000  C
  C223     1.0000 0.34876  0.22506  0.89152  Biso   1.000  C
  C224     1.0000 0.36614  0.20414  0.85678  Biso   1.000  C
  C225     1.0000 0.39510  0.21030  0.81760  Biso   1.000  C
  C226     1.0000 0.40341  0.18141  0.79507  Biso   1.000  C
  C227     1.0000 0.38277  0.14637  0.81169  Biso   1.000  C
  C228     1.0000 0.35380  0.14010  0.85090  Biso   1.000  C
  C229     1.0000 0.34560  0.16900  0.87340  Biso   1.000  C
  C230     1.0000 0.43025  0.11195  0.75925  Biso   1.000  C
  C231     1.0000 0.44101  0.01521  0.78787  Biso   1.000  C
  C232     1.0000 0.50079  0.96689  0.82633  Biso   1.000  C
  C233     1.0000 0.47676  0.93446  0.84682  Biso   1.000  C
  C234     1.0000 0.49530  0.89180  0.87550  Biso   1.000  C
  C235     1.0000 0.53787  0.88157  0.88369  Biso   1.000  C
  C236     1.0000 0.56190  0.91400  0.86320  Biso   1.000  C
  C237     1.0000 0.54336  0.95666  0.83452  Biso   1.000  C
  C238     1.0000 0.60870  0.98560  0.81130  Biso   1.000  C
  C239     1.0000 0.55801  0.83371  0.91597  Biso   1.000  C
  C240     1.0000 0.59058  0.82888  0.92206  Biso   1.000  C
  C241     1.0000 0.60644  0.77954  0.95158  Biso   1.000  C
  C242     1.0000 0.30500  0.09670  0.91270  Biso   1.000  C
  C243     1.0000 0.45430  0.35060  0.91840  Biso   1.000  C
  C244     1.0000 0.49895  0.35895  0.88585  Biso   1.000  C
  C245     1.0000 0.53466  0.34876  0.89152  Biso   1.000  C
  C246     1.0000 0.57294  0.36614  0.85678  Biso   1.000  C
  C247     1.0000 0.57700  0.39510  0.81760  Biso   1.000  C
  C248     1.0000 0.62011  0.40341  0.79507  Biso   1.000  C
  C249     1.0000 0.65917  0.38277  0.81169  Biso   1.000  C
  C250     1.0000 0.65520  0.35380  0.85090  Biso   1.000  C
  C251     1.0000 0.61200  0.34560  0.87340  Biso   1.000  C
  C252     1.0000 0.69855  0.43025  0.75925  Biso   1.000  C
  C253     1.0000 0.75591  0.44101  0.78787  Biso   1.000  C
  C254     1.0000 0.70599  0.50079  0.82633  Biso   1.000  C
  C255     1.0000 0.74196  0.47676  0.84682  Biso   1.000  C
  C256     1.0000 0.73740  0.49530  0.87550  Biso   1.000  C
  C257     1.0000 0.69687  0.53787  0.88369  Biso   1.000  C
  C258     1.0000 0.66090  0.56190  0.86320  Biso   1.000  C
  C259     1.0000 0.66546  0.54336  0.83452  Biso   1.000  C
  C260     1.0000 0.59440  0.60870  0.81130  Biso   1.000  C
  C261     1.0000 0.69231  0.55801  0.91597  Biso   1.000  C
  C262     1.0000 0.65848  0.59058  0.92206  Biso   1.000  C
  C263     1.0000 0.66244  0.60644  0.95158  Biso   1.000  C
  C264     1.0000 0.68560  0.30500  0.91270  Biso   1.000  C
  C265     1.0000 0.56275  0.93725  0.25000  Biso   1.000  C
  C266     1.0000 0.93725  0.25000  0.25000  Biso   1.000  C
  C267     1.0000 0.25000  0.56275  0.25000  Biso   1.000  C
  C268     1.0000 0.43725  0.06275  0.75000  Biso   1.000  C
  C269     1.0000 0.06275  0.75000  0.75000  Biso   1.000  C
  C270     1.0000 0.75000  0.43725  0.75000  Biso   1.000  C
  O1       1.0000 0.81505  0.86445  0.40265  Biso   1.000  O
  O2       1.0000 0.24683  0.08433  0.47201  Biso   1.000  O
  O3       1.0000 0.76555  0.82725  0.45365  Biso   1.000  O
  O4       1.0000 0.26612  0.14312  0.46844  Biso   1.000  O
  O5       1.0000 0.61424  0.88654  0.29228  Biso   1.000  O
  O6       1.0000 0.50991  0.98411  0.29627  Biso   1.000  O
  O7       1.0000 0.48926  0.05976  0.31412  Biso   1.000  O
  O8       1.0000 0.61272  0.82132  0.36794  Biso   1.000  O
  O9       1.0000 0.86445  0.91785  0.40265  Biso   1.000  O
  O10      1.0000 0.08433  0.19683  0.47201  Biso   1.000  O
  O11      1.0000 0.82725  0.95355  0.45365  Biso   1.000  O
  O12      1.0000 0.14312  0.12232  0.46844  Biso   1.000  O
  O13      1.0000 0.88654  0.20694  0.29228  Biso   1.000  O
  O14      1.0000 0.98411  0.20971  0.29627  Biso   1.000  O
  O15      1.0000 0.05976  0.13686  0.31412  Biso   1.000  O
  O16      1.0000 0.82132  0.19802  0.36794  Biso   1.000  O
  O17      1.0000 0.91785  0.81505  0.40265  Biso   1.000  O
  O18      1.0000 0.19683  0.24683  0.47201  Biso   1.000  O
  O19      1.0000 0.95355  0.76555  0.45365  Biso   1.000  O
  O20      1.0000 0.12232  0.26612  0.46844  Biso   1.000  O
  O21      1.0000 0.20694  0.61424  0.29228  Biso   1.000  O
  O22      1.0000 0.20971  0.50991  0.29627  Biso   1.000  O
  O23      1.0000 0.13686  0.48926  0.31412  Biso   1.000  O
  O24      1.0000 0.19802  0.61272  0.36794  Biso   1.000  O
  O25      1.0000 0.68495  0.58215  0.09735  Biso   1.000  O
  O26      1.0000 0.25317  0.30317  0.02799  Biso   1.000  O
  O27      1.0000 0.73445  0.54645  0.04635  Biso   1.000  O
  O28      1.0000 0.23388  0.37768  0.03156  Biso   1.000  O
  O29      1.0000 0.88576  0.29306  0.20772  Biso   1.000  O
  O30      1.0000 0.99009  0.29029  0.20373  Biso   1.000  O
  O31      1.0000 0.01074  0.36314  0.18588  Biso   1.000  O
  O32      1.0000 0.88728  0.30198  0.13206  Biso   1.000  O
  O33      1.0000 0.63555  0.68495  0.09735  Biso   1.000  O
  O34      1.0000 0.41567  0.25317  0.02799  Biso   1.000  O
  O35      1.0000 0.67275  0.73445  0.04635  Biso   1.000  O
  O36      1.0000 0.35688  0.23388  0.03156  Biso   1.000  O
  O37      1.0000 0.61346  0.88576  0.20772  Biso   1.000  O
  O38      1.0000 0.51589  0.99009  0.20373  Biso   1.000  O
  O39      1.0000 0.44024  0.01074  0.18588  Biso   1.000  O
  O40      1.0000 0.67868  0.88728  0.13206  Biso   1.000  O
  O41      1.0000 0.58215  0.63555  0.09735  Biso   1.000  O
  O42      1.0000 0.30317  0.41567  0.02799  Biso   1.000  O
  O43      1.0000 0.54645  0.67275  0.04635  Biso   1.000  O
  O44      1.0000 0.37768  0.35688  0.03156  Biso   1.000  O
  O45      1.0000 0.29306  0.61346  0.20772  Biso   1.000  O
  O46      1.0000 0.29029  0.51589  0.20373  Biso   1.000  O
  O47      1.0000 0.36314  0.44024  0.18588  Biso   1.000  O
  O48      1.0000 0.30198  0.67868  0.13206  Biso   1.000  O
  O49      1.0000 0.18495  0.13555  0.59735  Biso   1.000  O
  O50      1.0000 0.75317  0.91567  0.52799  Biso   1.000  O
  O51      1.0000 0.23445  0.17275  0.54635  Biso   1.000  O
  O52      1.0000 0.73388  0.85688  0.53156  Biso   1.000  O
  O53      1.0000 0.38576  0.11346  0.70772  Biso   1.000  O
  O54      1.0000 0.49009  0.01589  0.70373  Biso   1.000  O
  O55      1.0000 0.51074  0.94024  0.68588  Biso   1.000  O
  O56      1.0000 0.38728  0.17868  0.63206  Biso   1.000  O
  O57      1.0000 0.13555  0.08215  0.59735  Biso   1.000  O
  O58      1.0000 0.91567  0.80317  0.52799  Biso   1.000  O
  O59      1.0000 0.17275  0.04645  0.54635  Biso   1.000  O
  O60      1.0000 0.85688  0.87768  0.53156  Biso   1.000  O
  O61      1.0000 0.11346  0.79306  0.70772  Biso   1.000  O
  O62      1.0000 0.01589  0.79029  0.70373  Biso   1.000  O
  O63      1.0000 0.94024  0.86314  0.68588  Biso   1.000  O
  O64      1.0000 0.17868  0.80198  0.63206  Biso   1.000  O
  O65      1.0000 0.08215  0.18495  0.59735  Biso   1.000  O
  O66      1.0000 0.80317  0.75317  0.52799  Biso   1.000  O
  O67      1.0000 0.04645  0.23445  0.54635  Biso   1.000  O
  O68      1.0000 0.87768  0.73388  0.53156  Biso   1.000  O
  O69      1.0000 0.79306  0.38576  0.70772  Biso   1.000  O
  O70      1.0000 0.79029  0.49009  0.70373  Biso   1.000  O
  O71      1.0000 0.86314  0.51074  0.68588  Biso   1.000  O
  O72      1.0000 0.80198  0.38728  0.63206  Biso   1.000  O
  O73      1.0000 0.31505  0.41785  0.90265  Biso   1.000  O
  O74      1.0000 0.74683  0.69683  0.97201  Biso   1.000  O
  O75      1.0000 0.26555  0.45355  0.95365  Biso   1.000  O
  O76      1.0000 0.76612  0.62232  0.96844  Biso   1.000  O
  O77      1.0000 0.11424  0.70694  0.79228  Biso   1.000  O
  O78      1.0000 0.00991  0.70971  0.79627  Biso   1.000  O
  O79      1.0000 0.98926  0.63686  0.81412  Biso   1.000  O
  O80      1.0000 0.11272  0.69802  0.86794  Biso   1.000  O
  O81      1.0000 0.36445  0.31505  0.90265  Biso   1.000  O
  O82      1.0000 0.58433  0.74683  0.97201  Biso   1.000  O
  O83      1.0000 0.32725  0.26555  0.95365  Biso   1.000  O
  O84      1.0000 0.64312  0.76612  0.96844  Biso   1.000  O
  O85      1.0000 0.38654  0.11424  0.79228  Biso   1.000  O
  O86      1.0000 0.48411  0.00991  0.79627  Biso   1.000  O
  O87      1.0000 0.55976  0.98926  0.81412  Biso   1.000  O
  O88      1.0000 0.32132  0.11272  0.86794  Biso   1.000  O
  O89      1.0000 0.41785  0.36445  0.90265  Biso   1.000  O
  O90      1.0000 0.69683  0.58433  0.97201  Biso   1.000  O
  O91      1.0000 0.45355  0.32725  0.95365  Biso   1.000  O
  O92      1.0000 0.62232  0.64312  0.96844  Biso   1.000  O
  O93      1.0000 0.70694  0.38654  0.79228  Biso   1.000  O
  O94      1.0000 0.70971  0.48411  0.79627  Biso   1.000  O
  O95      1.0000 0.63686  0.55976  0.81412  Biso   1.000  O
  O96      1.0000 0.69802  0.32132  0.86794  Biso   1.000  O
  O97      1.0000 0.84083  0.84083  0.47751  Biso   1.000  O
  O98      1.0000 0.65917  0.65917  0.02249  Biso   1.000  O
  O99      1.0000 0.15917  0.15917  0.52249  Biso   1.000  O
  O100     1.0000 0.34083  0.34083  0.97751  Biso   1.000  O
