data_image0
_cell_length_a       14.0455
_cell_length_b       14.0455
_cell_length_c       14.6075
_cell_angle_alpha    90
_cell_angle_beta     90
_cell_angle_gamma    90

_symmetry_space_group_name_H-M    P 1
_symmetry_int_tables_number       1

loop_
  _symmetry_equiv_pos_as_xyz
  'x, y, z'

loop_
  _atom_site_label
  _atom_site_occupancy
  _atom_site_fract_x
  _atom_site_fract_y
  _atom_site_fract_z
  _atom_site_thermal_displace_type
  _atom_site_B_iso_or_equiv
  _atom_site_type_symbol
  Cu1      1.0000 0.50000  0.50000  0.00000  Biso   1.000  Cu
  Cu2      1.0000 0.00000  0.00000  0.00000  Biso   1.000  Cu
  Cu3      1.0000 0.00000  0.50000  0.50000  Biso   1.000  Cu
  Cu4      1.0000 0.50000  0.00000  0.50000  Biso   1.000  Cu
  Cu5      1.0000 0.83378  0.66622  0.20861  Biso   1.000  Cu
  Cu6      1.0000 0.66622  0.83378  0.20861  Biso   1.000  Cu
  Cu7      1.0000 0.83378  0.83378  0.70861  Biso   1.000  Cu
  Cu8      1.0000 0.66622  0.66622  0.70861  Biso   1.000  Cu
  Cu9      1.0000 0.16622  0.16622  0.29139  Biso   1.000  Cu
  Cu10     1.0000 0.33378  0.33378  0.29139  Biso   1.000  Cu
  Cu11     1.0000 0.16622  0.33378  0.79139  Biso   1.000  Cu
  Cu12     1.0000 0.33378  0.16622  0.79139  Biso   1.000  Cu
  H1       1.0000 0.77570  0.46980  0.13320  Biso   1.000  H
  H2       1.0000 0.68620  0.42640  0.08460  Biso   1.000  H
  H3       1.0000 0.76250  0.48190  0.02720  Biso   1.000  H
  H4       1.0000 0.72430  0.03020  0.13320  Biso   1.000  H
  H5       1.0000 0.81380  0.07360  0.08460  Biso   1.000  H
  H6       1.0000 0.73750  0.01810  0.02720  Biso   1.000  H
  H7       1.0000 0.03020  0.77570  0.63320  Biso   1.000  H
  H8       1.0000 0.07360  0.68620  0.58460  Biso   1.000  H
  H9       1.0000 0.01810  0.76250  0.52720  Biso   1.000  H
  H10      1.0000 0.46980  0.72430  0.63320  Biso   1.000  H
  H11      1.0000 0.42640  0.81380  0.58460  Biso   1.000  H
  H12      1.0000 0.48190  0.73750  0.52720  Biso   1.000  H
  H13      1.0000 0.22430  0.96980  0.36680  Biso   1.000  H
  H14      1.0000 0.31380  0.92640  0.41540  Biso   1.000  H
  H15      1.0000 0.23750  0.98190  0.47280  Biso   1.000  H
  H16      1.0000 0.27570  0.53020  0.36680  Biso   1.000  H
  H17      1.0000 0.18620  0.57360  0.41540  Biso   1.000  H
  H18      1.0000 0.26250  0.51810  0.47280  Biso   1.000  H
  H19      1.0000 0.96980  0.27570  0.86680  Biso   1.000  H
  H20      1.0000 0.92640  0.18620  0.91540  Biso   1.000  H
  H21      1.0000 0.98190  0.26250  0.97280  Biso   1.000  H
  H22      1.0000 0.53020  0.22430  0.86680  Biso   1.000  H
  H23      1.0000 0.57360  0.31380  0.91540  Biso   1.000  H
  H24      1.0000 0.51810  0.23750  0.97280  Biso   1.000  H
  H25      1.0000 0.22430  0.53020  0.86680  Biso   1.000  H
  H26      1.0000 0.31380  0.57360  0.91540  Biso   1.000  H
  H27      1.0000 0.23750  0.51810  0.97280  Biso   1.000  H
  H28      1.0000 0.27570  0.96980  0.86680  Biso   1.000  H
  H29      1.0000 0.18620  0.92640  0.91540  Biso   1.000  H
  H30      1.0000 0.26250  0.98190  0.97280  Biso   1.000  H
  H31      1.0000 0.96980  0.22430  0.36680  Biso   1.000  H
  H32      1.0000 0.92640  0.31380  0.41540  Biso   1.000  H
  H33      1.0000 0.98190  0.23750  0.47280  Biso   1.000  H
  H34      1.0000 0.53020  0.27570  0.36680  Biso   1.000  H
  H35      1.0000 0.57360  0.18620  0.41540  Biso   1.000  H
  H36      1.0000 0.51810  0.26250  0.47280  Biso   1.000  H
  H37      1.0000 0.77570  0.03020  0.63320  Biso   1.000  H
  H38      1.0000 0.68620  0.07360  0.58460  Biso   1.000  H
  H39      1.0000 0.76250  0.01810  0.52720  Biso   1.000  H
  H40      1.0000 0.72430  0.46980  0.63320  Biso   1.000  H
  H41      1.0000 0.81380  0.42640  0.58460  Biso   1.000  H
  H42      1.0000 0.73750  0.48190  0.52720  Biso   1.000  H
  H43      1.0000 0.03020  0.72430  0.13320  Biso   1.000  H
  H44      1.0000 0.07360  0.81380  0.08460  Biso   1.000  H
  H45      1.0000 0.01810  0.73750  0.02720  Biso   1.000  H
  H46      1.0000 0.46980  0.77570  0.13320  Biso   1.000  H
  H47      1.0000 0.42640  0.68620  0.08460  Biso   1.000  H
  H48      1.0000 0.48190  0.76250  0.02720  Biso   1.000  H
  C1       1.0000 0.67690  0.56960  0.10080  Biso   1.000  C
  C2       1.0000 0.73010  0.47880  0.08500  Biso   1.000  C
  C3       1.0000 0.88410  0.53850  0.34020  Biso   1.000  C
  C4       1.0000 0.82310  0.93040  0.10080  Biso   1.000  C
  C5       1.0000 0.76990  0.02120  0.08500  Biso   1.000  C
  C6       1.0000 0.61590  0.96150  0.34020  Biso   1.000  C
  C7       1.0000 0.93040  0.67690  0.60080  Biso   1.000  C
  C8       1.0000 0.02120  0.73010  0.58500  Biso   1.000  C
  C9       1.0000 0.96150  0.88410  0.84020  Biso   1.000  C
  C10      1.0000 0.56960  0.82310  0.60080  Biso   1.000  C
  C11      1.0000 0.47880  0.76990  0.58500  Biso   1.000  C
  C12      1.0000 0.53850  0.61590  0.84020  Biso   1.000  C
  C13      1.0000 0.32310  0.06960  0.39920  Biso   1.000  C
  C14      1.0000 0.26990  0.97880  0.41500  Biso   1.000  C
  C15      1.0000 0.11590  0.03850  0.15980  Biso   1.000  C
  C16      1.0000 0.17690  0.43040  0.39920  Biso   1.000  C
  C17      1.0000 0.23010  0.52120  0.41500  Biso   1.000  C
  C18      1.0000 0.38410  0.46150  0.15980  Biso   1.000  C
  C19      1.0000 0.06960  0.17690  0.89920  Biso   1.000  C
  C20      1.0000 0.97880  0.23010  0.91500  Biso   1.000  C
  C21      1.0000 0.03850  0.38410  0.65980  Biso   1.000  C
  C22      1.0000 0.43040  0.32310  0.89920  Biso   1.000  C
  C23      1.0000 0.52120  0.26990  0.91500  Biso   1.000  C
  C24      1.0000 0.46150  0.11590  0.65980  Biso   1.000  C
  C25      1.0000 0.32310  0.43040  0.89920  Biso   1.000  C
  C26      1.0000 0.26990  0.52120  0.91500  Biso   1.000  C
  C27      1.0000 0.11590  0.46150  0.65980  Biso   1.000  C
  C28      1.0000 0.17690  0.06960  0.89920  Biso   1.000  C
  C29      1.0000 0.23010  0.97880  0.91500  Biso   1.000  C
  C30      1.0000 0.38410  0.03850  0.65980  Biso   1.000  C
  C31      1.0000 0.06960  0.32310  0.39920  Biso   1.000  C
  C32      1.0000 0.97880  0.26990  0.41500  Biso   1.000  C
  C33      1.0000 0.03850  0.11590  0.15980  Biso   1.000  C
  C34      1.0000 0.43040  0.17690  0.39920  Biso   1.000  C
  C35      1.0000 0.52120  0.23010  0.41500  Biso   1.000  C
  C36      1.0000 0.46150  0.38410  0.15980  Biso   1.000  C
  C37      1.0000 0.67690  0.93040  0.60080  Biso   1.000  C
  C38      1.0000 0.73010  0.02120  0.58500  Biso   1.000  C
  C39      1.0000 0.88410  0.96150  0.84020  Biso   1.000  C
  C40      1.0000 0.82310  0.56960  0.60080  Biso   1.000  C
  C41      1.0000 0.76990  0.47880  0.58500  Biso   1.000  C
  C42      1.0000 0.61590  0.53850  0.84020  Biso   1.000  C
  C43      1.0000 0.93040  0.82310  0.10080  Biso   1.000  C
  C44      1.0000 0.02120  0.76990  0.08500  Biso   1.000  C
  C45      1.0000 0.96150  0.61590  0.34020  Biso   1.000  C
  C46      1.0000 0.56960  0.67690  0.10080  Biso   1.000  C
  C47      1.0000 0.47880  0.73010  0.08500  Biso   1.000  C
  C48      1.0000 0.53850  0.88410  0.34020  Biso   1.000  C
  N1       1.0000 0.71280  0.64320  0.14350  Biso   1.000  N
  N2       1.0000 0.78720  0.85680  0.14350  Biso   1.000  N
  N3       1.0000 0.85680  0.71280  0.64350  Biso   1.000  N
  N4       1.0000 0.64320  0.78720  0.64350  Biso   1.000  N
  N5       1.0000 0.28720  0.14320  0.35650  Biso   1.000  N
  N6       1.0000 0.21280  0.35680  0.35650  Biso   1.000  N
  N7       1.0000 0.14320  0.21280  0.85650  Biso   1.000  N
  N8       1.0000 0.35680  0.28720  0.85650  Biso   1.000  N
  N9       1.0000 0.28720  0.35680  0.85650  Biso   1.000  N
  N10      1.0000 0.21280  0.14320  0.85650  Biso   1.000  N
  N11      1.0000 0.14320  0.28720  0.35650  Biso   1.000  N
  N12      1.0000 0.35680  0.21280  0.35650  Biso   1.000  N
  N13      1.0000 0.71280  0.85680  0.64350  Biso   1.000  N
  N14      1.0000 0.78720  0.64320  0.64350  Biso   1.000  N
  N15      1.0000 0.85680  0.78720  0.14350  Biso   1.000  N
  N16      1.0000 0.64320  0.71280  0.14350  Biso   1.000  N
  N17      1.0000 0.58670  0.58670  0.07170  Biso   1.000  N
  N18      1.0000 0.91330  0.91330  0.07170  Biso   1.000  N
  N19      1.0000 0.91330  0.58670  0.57170  Biso   1.000  N
  N20      1.0000 0.58670  0.91330  0.57170  Biso   1.000  N
  N21      1.0000 0.41330  0.08670  0.42830  Biso   1.000  N
  N22      1.0000 0.08670  0.41330  0.42830  Biso   1.000  N
  N23      1.0000 0.08670  0.08670  0.92830  Biso   1.000  N
  N24      1.0000 0.41330  0.41330  0.92830  Biso   1.000  N
  O1       1.0000 0.88620  0.47610  0.39994  Biso   1.000  O
  O2       1.0000 0.82090  0.54680  0.27881  Biso   1.000  O
  O3       1.0000 0.61380  0.02390  0.39994  Biso   1.000  O
  O4       1.0000 0.67910  0.95320  0.27881  Biso   1.000  O
  O5       1.0000 0.02390  0.88620  0.89994  Biso   1.000  O
  O6       1.0000 0.95320  0.82090  0.77881  Biso   1.000  O
  O7       1.0000 0.47610  0.61380  0.89994  Biso   1.000  O
  O8       1.0000 0.54680  0.67910  0.77881  Biso   1.000  O
  O9       1.0000 0.11380  0.97610  0.10006  Biso   1.000  O
  O10      1.0000 0.17910  0.04680  0.22119  Biso   1.000  O
  O11      1.0000 0.38620  0.52390  0.10006  Biso   1.000  O
  O12      1.0000 0.32090  0.45320  0.22119  Biso   1.000  O
  O13      1.0000 0.97610  0.38620  0.60006  Biso   1.000  O
  O14      1.0000 0.04680  0.32090  0.72119  Biso   1.000  O
  O15      1.0000 0.52390  0.11380  0.60006  Biso   1.000  O
  O16      1.0000 0.45320  0.17910  0.72119  Biso   1.000  O
  O17      1.0000 0.11380  0.52390  0.60006  Biso   1.000  O
  O18      1.0000 0.17910  0.45320  0.72119  Biso   1.000  O
  O19      1.0000 0.38620  0.97610  0.60006  Biso   1.000  O
  O20      1.0000 0.32090  0.04680  0.72119  Biso   1.000  O
  O21      1.0000 0.97610  0.11380  0.10006  Biso   1.000  O
  O22      1.0000 0.04680  0.17910  0.22119  Biso   1.000  O
  O23      1.0000 0.52390  0.38620  0.10006  Biso   1.000  O
  O24      1.0000 0.45320  0.32090  0.22119  Biso   1.000  O
  O25      1.0000 0.88620  0.02390  0.89994  Biso   1.000  O
  O26      1.0000 0.82090  0.95320  0.77881  Biso   1.000  O
  O27      1.0000 0.61380  0.47610  0.89994  Biso   1.000  O
  O28      1.0000 0.67910  0.54680  0.77881  Biso   1.000  O
  O29      1.0000 0.02390  0.61380  0.39994  Biso   1.000  O
  O30      1.0000 0.95320  0.67910  0.27881  Biso   1.000  O
  O31      1.0000 0.47610  0.88620  0.39994  Biso   1.000  O
  O32      1.0000 0.54680  0.82090  0.27881  Biso   1.000  O
