data_image0
_cell_length_a       13.8375
_cell_length_b       15.7403
_cell_length_c       22.0228
_cell_angle_alpha    90
_cell_angle_beta     98.841
_cell_angle_gamma    90

_symmetry_space_group_name_H-M    "P 1"
_symmetry_int_tables_number       1

loop_
  _symmetry_equiv_pos_as_xyz
  'x, y, z'

loop_
  _atom_site_label
  _atom_site_occupancy
  _atom_site_fract_x
  _atom_site_fract_y
  _atom_site_fract_z
  _atom_site_thermal_displace_type
  _atom_site_B_iso_or_equiv
  _atom_site_type_symbol
  Cd1      1.0000 0.82626  0.77233  0.18104  Biso   1.000  Cd
  S1       1.0000 0.81830  0.84550  0.04623  Biso   1.000  S
  O1       1.0000 0.75680  0.86770  0.09350  Biso   1.000  O
  O2       1.0000 0.87670  0.91940  0.03420  Biso   1.000  O
  O3       1.0000 0.88230  0.77480  0.07020  Biso   1.000  O
  O4       1.0000 0.75480  0.81970  0.98970  Biso   1.000  O
  S2       1.0000 0.92843  0.65835  0.31379  Biso   1.000  S
  O5       1.0000 0.86630  0.71990  0.27880  Biso   1.000  O
  O6       1.0000 0.00690  0.62580  0.28290  Biso   1.000  O
  O7       1.0000 0.97370  0.69520  0.37370  Biso   1.000  O
  O8       1.0000 0.86800  0.58440  0.32800  Biso   1.000  O
  O9       1.0000 0.91760  0.68280  0.24750  Biso   1.000  O
  O10      1.0000 0.02260  0.61360  0.32840  Biso   1.000  O
  O11      1.0000 0.93000  0.73620  0.35030  Biso   1.000  O
  O12      1.0000 0.84790  0.60320  0.32330  Biso   1.000  O
  O13      1.0000 0.90820  0.41860  0.55650  Biso   1.000  O
  H1       1.0000 0.85890  0.38500  0.54870  Biso   1.000  H
  H2       1.0000 0.93660  0.40530  0.59160  Biso   1.000  H
  O14      1.0000 0.86090  0.50970  0.42970  Biso   1.000  O
  H3       1.0000 0.86150  0.53420  0.39500  Biso   1.000  H
  H4       1.0000 0.83200  0.46320  0.42200  Biso   1.000  H
  N1       1.0000 0.10180  0.96940  0.08920  Biso   1.000  N
  N2       1.0000 0.68940  0.81440  0.22340  Biso   1.000  N
  N3       1.0000 0.92890  0.12390  0.03820  Biso   1.000  N
  N4       1.0000 0.74720  0.64830  0.14170  Biso   1.000  N
  N5       1.0000 0.91920  0.88950  0.21850  Biso   1.000  N
  N6       1.0000 0.04840  0.37910  0.45270  Biso   1.000  N
  C1       1.0000 0.09100  0.89680  0.12020  Biso   1.000  C
  H5       1.0000 0.03360  0.86390  0.10830  Biso   1.000  H
  C2       1.0000 0.15870  0.86830  0.16770  Biso   1.000  C
  H6       1.0000 0.14740  0.81670  0.18790  Biso   1.000  H
  C3       1.0000 0.25230  0.99040  0.15640  Biso   1.000  C
  H7       1.0000 0.30790  0.02540  0.16860  Biso   1.000  H
  C4       1.0000 0.18100  0.01620  0.10900  Biso   1.000  C
  H8       1.0000 0.18870  0.06920  0.08960  Biso   1.000  H
  C5       1.0000 0.24310  0.91380  0.18630  Biso   1.000  C
  C6       1.0000 0.32390  0.88020  0.23470  Biso   1.000  C
  H9       1.0000 0.29530  0.83620  0.25870  Biso   1.000  H
  H10      1.0000 0.37280  0.85160  0.21330  Biso   1.000  H
  C7       1.0000 0.37680  0.94290  0.27900  Biso   1.000  C
  H11      1.0000 0.33030  0.96750  0.30410  Biso   1.000  H
  H12      1.0000 0.40180  0.98970  0.25570  Biso   1.000  H
  C8       1.0000 0.46050  0.90330  0.32070  Biso   1.000  C
  H13      1.0000 0.43590  0.85540  0.34310  Biso   1.000  H
  H14      1.0000 0.48910  0.94590  0.35150  Biso   1.000  H
  C9       1.0000 0.53930  0.87130  0.28600  Biso   1.000  C
  C10      1.0000 0.57100  0.78800  0.28860  Biso   1.000  C
  H15      1.0000 0.54100  0.74790  0.31210  Biso   1.000  H
  C11      1.0000 0.64400  0.76210  0.25830  Biso   1.000  C
  H16      1.0000 0.66400  0.70440  0.26180  Biso   1.000  H
  C12      1.0000 0.65740  0.89460  0.21940  Biso   1.000  C
  H17      1.0000 0.68690  0.93270  0.19430  Biso   1.000  H
  C13      1.0000 0.58550  0.92530  0.24890  Biso   1.000  C
  H18      1.0000 0.56650  0.98320  0.24430  Biso   1.000  H
  C14      1.0000 0.95470  0.20430  0.02840  Biso   1.000  C
  H19      1.0000 0.01160  0.21380  0.01000  Biso   1.000  H
  C15      1.0000 0.90290  0.27390  0.04350  Biso   1.000  C
  H20      1.0000 0.92360  0.32950  0.03490  Biso   1.000  H
  C16      1.0000 0.82100  0.26290  0.07130  Biso   1.000  C
  C17      1.0000 0.79390  0.18050  0.08140  Biso   1.000  C
  H21      1.0000 0.73780  0.16970  0.10020  Biso   1.000  H
  C18      1.0000 0.84830  0.11360  0.06420  Biso   1.000  C
  H22      1.0000 0.82750  0.05740  0.07120  Biso   1.000  H
  C19      1.0000 0.75880  0.33310  0.09620  Biso   1.000  C
  H23      1.0000 0.73710  0.31310  0.13460  Biso   1.000  H
  H24      1.0000 0.79950  0.38450  0.10620  Biso   1.000  H
  C20      1.0000 0.67110  0.35550  0.05010  Biso   1.000  C
  H25      1.0000 0.63460  0.30270  0.03730  Biso   1.000  H
  H26      1.0000 0.69380  0.37970  0.01320  Biso   1.000  H
  C21      1.0000 0.60230  0.41770  0.07280  Biso   1.000  C
  H27      1.0000 0.57210  0.39040  0.10580  Biso   1.000  H
  H28      1.0000 0.54930  0.43140  0.03870  Biso   1.000  H
  H29      1.0000 0.54430  0.40760  0.09310  Biso   1.000  H
  H30      1.0000 0.57930  0.42430  0.02830  Biso   1.000  H
  C22      1.0000 0.65110  0.49970  0.09740  Biso   1.000  C
  C23      1.0000 0.66380  0.56700  0.05930  Biso   1.000  C
  H31      1.0000 0.63920  0.56340  0.01660  Biso   1.000  H
  C24      1.0000 0.71180  0.63890  0.08260  Biso   1.000  C
  H32      1.0000 0.72000  0.68400  0.05520  Biso   1.000  H
  C25      1.0000 0.73440  0.58360  0.17880  Biso   1.000  C
  H33      1.0000 0.75930  0.58860  0.22130  Biso   1.000  H
  C26      1.0000 0.68640  0.50940  0.15810  Biso   1.000  C
  H34      1.0000 0.67820  0.46540  0.18630  Biso   1.000  H
  C27      1.0000 0.76600  0.34640  0.06100  Biso   1.000  C
  H35      1.0000 0.80490  0.39240  0.08320  Biso   1.000  H
  H36      1.0000 0.75560  0.36040  0.01660  Biso   1.000  H
  C28      1.0000 0.66800  0.34200  0.08300  Biso   1.000  C
  H37      1.0000 0.63210  0.29250  0.06200  Biso   1.000  H
  H38      1.0000 0.67990  0.32910  0.12720  Biso   1.000  H
  C29      1.0000 0.99180  0.88050  0.26550  Biso   1.000  C
  H39      1.0000 0.00040  0.82700  0.28560  Biso   1.000  H
  C30      1.0000 0.05380  0.94490  0.28580  Biso   1.000  C
  H40      1.0000 0.10400  0.93500  0.31950  Biso   1.000  H
  C31      1.0000 0.97020  0.03350  0.21040  Biso   1.000  C
  H41      1.0000 0.95990  0.08680  0.19010  Biso   1.000  H
  C32      1.0000 0.91040  0.96650  0.19190  Biso   1.000  C
  H42      1.0000 0.85950  0.97470  0.15820  Biso   1.000  H
  C33      1.0000 0.04620  0.02370  0.25920  Biso   1.000  C
  C34      1.0000 0.12140  0.09470  0.27710  Biso   1.000  C
  H43      1.0000 0.18590  0.07900  0.26640  Biso   1.000  H
  H44      1.0000 0.09950  0.14850  0.25600  Biso   1.000  H
  H45      1.0000 0.17950  0.07280  0.30450  Biso   1.000  H
  H46      1.0000 0.14250  0.12020  0.24020  Biso   1.000  H
  C35      1.0000 0.12700  0.10380  0.34470  Biso   1.000  C
  H47      1.0000 0.05930  0.10760  0.35430  Biso   1.000  H
  H48      1.0000 0.15650  0.05150  0.36450  Biso   1.000  H
  C36      1.0000 0.18290  0.17780  0.37290  Biso   1.000  C
  H49      1.0000 0.21750  0.20280  0.34100  Biso   1.000  H
  H50      1.0000 0.23370  0.15560  0.40560  Biso   1.000  H
  C37      1.0000 0.13240  0.24890  0.40020  Biso   1.000  C
  C38      1.0000 0.18520  0.31660  0.42790  Biso   1.000  C
  H51      1.0000 0.25370  0.31800  0.42760  Biso   1.000  H
  C39      1.0000 0.14460  0.37990  0.45480  Biso   1.000  C
  H52      1.0000 0.18330  0.42430  0.47510  Biso   1.000  H
  C40      1.0000 0.99410  0.31900  0.42230  Biso   1.000  C
  H53      1.0000 0.92510  0.32600  0.41630  Biso   1.000  H
  C41      1.0000 0.03040  0.24850  0.39940  Biso   1.000  C
  H54      1.0000 0.99030  0.20200  0.38380  Biso   1.000  H
  C42      1.0000 0.06800  0.15720  0.30940  Biso   1.000  C
  H55      1.0000 0.99690  0.14800  0.30180  Biso   1.000  H
  H56      1.0000 0.08350  0.21640  0.29900  Biso   1.000  H
  C43      1.0000 0.11300  0.13400  0.37400  Biso   1.000  C
  H57      1.0000 0.18370  0.12210  0.37710  Biso   1.000  H
  H58      1.0000 0.07980  0.08430  0.38910  Biso   1.000  H
  C44      1.0000 0.09410  0.21480  0.40860  Biso   1.000  C
  C45      1.0000 0.16390  0.27680  0.42330  Biso   1.000  C
  H59      1.0000 0.22980  0.26560  0.41850  Biso   1.000  H
  C46      1.0000 0.14010  0.35410  0.44480  Biso   1.000  C
  H60      1.0000 0.19170  0.39380  0.45510  Biso   1.000  H
  C47      1.0000 0.98030  0.31690  0.43880  Biso   1.000  C
  H61      1.0000 0.91630  0.32680  0.44780  Biso   1.000  H
  C48      1.0000 0.99860  0.24110  0.41270  Biso   1.000  C
  H62      1.0000 0.94530  0.20540  0.39690  Biso   1.000  H
  H63      1.0000 0.02420  0.75080  0.40460  Biso   1.000  H
  Cd2      1.0000 0.17374  0.22767  0.81896  Biso   1.000  Cd
  S3       1.0000 0.18170  0.15450  0.95377  Biso   1.000  S
  O15      1.0000 0.24320  0.13230  0.90650  Biso   1.000  O
  O16      1.0000 0.12330  0.08060  0.96580  Biso   1.000  O
  O17      1.0000 0.11770  0.22520  0.92980  Biso   1.000  O
  O18      1.0000 0.24520  0.18030  0.01030  Biso   1.000  O
  S4       1.0000 0.07157  0.34165  0.68621  Biso   1.000  S
  O19      1.0000 0.13370  0.28010  0.72120  Biso   1.000  O
  O20      1.0000 0.99310  0.37420  0.71710  Biso   1.000  O
  O21      1.0000 0.02630  0.30480  0.62630  Biso   1.000  O
  O22      1.0000 0.13200  0.41560  0.67200  Biso   1.000  O
  O23      1.0000 0.08240  0.31720  0.75250  Biso   1.000  O
  O24      1.0000 0.97740  0.38640  0.67160  Biso   1.000  O
  O25      1.0000 0.07000  0.26380  0.64970  Biso   1.000  O
  O26      1.0000 0.15210  0.39680  0.67670  Biso   1.000  O
  O27      1.0000 0.09180  0.58140  0.44350  Biso   1.000  O
  H64      1.0000 0.14110  0.61500  0.45130  Biso   1.000  H
  H65      1.0000 0.06340  0.59470  0.40840  Biso   1.000  H
  O28      1.0000 0.13910  0.49030  0.57030  Biso   1.000  O
  H66      1.0000 0.13850  0.46580  0.60500  Biso   1.000  H
  H67      1.0000 0.16800  0.53680  0.57800  Biso   1.000  H
  N7       1.0000 0.89820  0.03060  0.91080  Biso   1.000  N
  N8       1.0000 0.31060  0.18560  0.77660  Biso   1.000  N
  N9       1.0000 0.07110  0.87610  0.96180  Biso   1.000  N
  N10      1.0000 0.25280  0.35170  0.85830  Biso   1.000  N
  N11      1.0000 0.08080  0.11050  0.78150  Biso   1.000  N
  N12      1.0000 0.95160  0.62090  0.54730  Biso   1.000  N
  C49      1.0000 0.90900  0.10320  0.87980  Biso   1.000  C
  H68      1.0000 0.96640  0.13610  0.89170  Biso   1.000  H
  C50      1.0000 0.84130  0.13170  0.83230  Biso   1.000  C
  H69      1.0000 0.85260  0.18330  0.81210  Biso   1.000  H
  C51      1.0000 0.74770  0.00960  0.84360  Biso   1.000  C
  H70      1.0000 0.69210  0.97460  0.83140  Biso   1.000  H
  C52      1.0000 0.81900  0.98380  0.89100  Biso   1.000  C
  H71      1.0000 0.81130  0.93080  0.91040  Biso   1.000  H
  C53      1.0000 0.75690  0.08620  0.81370  Biso   1.000  C
  C54      1.0000 0.67610  0.11980  0.76530  Biso   1.000  C
  H72      1.0000 0.70470  0.16380  0.74130  Biso   1.000  H
  H73      1.0000 0.62720  0.14840  0.78670  Biso   1.000  H
  C55      1.0000 0.62320  0.05710  0.72100  Biso   1.000  C
  H74      1.0000 0.66970  0.03250  0.69590  Biso   1.000  H
  H75      1.0000 0.59820  0.01030  0.74430  Biso   1.000  H
  C56      1.0000 0.53950  0.09670  0.67930  Biso   1.000  C
  H76      1.0000 0.56410  0.14460  0.65690  Biso   1.000  H
  H77      1.0000 0.51090  0.05410  0.64850  Biso   1.000  H
  C57      1.0000 0.46070  0.12870  0.71400  Biso   1.000  C
  C58      1.0000 0.42900  0.21200  0.71140  Biso   1.000  C
  H78      1.0000 0.45900  0.25210  0.68790  Biso   1.000  H
  C59      1.0000 0.35600  0.23790  0.74170  Biso   1.000  C
  H79      1.0000 0.33600  0.29560  0.73820  Biso   1.000  H
  C60      1.0000 0.34260  0.10540  0.78060  Biso   1.000  C
  H80      1.0000 0.31310  0.06730  0.80570  Biso   1.000  H
  C61      1.0000 0.41450  0.07470  0.75110  Biso   1.000  C
  H81      1.0000 0.43350  0.01680  0.75570  Biso   1.000  H
  C62      1.0000 0.04530  0.79570  0.97160  Biso   1.000  C
  H82      1.0000 0.98840  0.78620  0.99000  Biso   1.000  H
  C63      1.0000 0.09710  0.72610  0.95650  Biso   1.000  C
  H83      1.0000 0.07640  0.67050  0.96510  Biso   1.000  H
  C64      1.0000 0.17900  0.73710  0.92870  Biso   1.000  C
  C65      1.0000 0.20610  0.81950  0.91860  Biso   1.000  C
  H84      1.0000 0.26220  0.83030  0.89980  Biso   1.000  H
  C66      1.0000 0.15170  0.88640  0.93580  Biso   1.000  C
  H85      1.0000 0.17250  0.94260  0.92880  Biso   1.000  H
  C67      1.0000 0.24120  0.66690  0.90380  Biso   1.000  C
  H86      1.0000 0.26290  0.68690  0.86540  Biso   1.000  H
  H87      1.0000 0.20050  0.61550  0.89380  Biso   1.000  H
  C68      1.0000 0.32890  0.64450  0.94990  Biso   1.000  C
  H88      1.0000 0.36540  0.69730  0.96270  Biso   1.000  H
  H89      1.0000 0.30620  0.62030  0.98680  Biso   1.000  H
  C69      1.0000 0.39770  0.58230  0.92720  Biso   1.000  C
  H90      1.0000 0.42790  0.60960  0.89420  Biso   1.000  H
  H91      1.0000 0.45070  0.56860  0.96130  Biso   1.000  H
  H92      1.0000 0.45570  0.59240  0.90690  Biso   1.000  H
  H93      1.0000 0.42070  0.57570  0.97170  Biso   1.000  H
  C70      1.0000 0.34890  0.50030  0.90260  Biso   1.000  C
  C71      1.0000 0.33620  0.43300  0.94070  Biso   1.000  C
  H94      1.0000 0.36080  0.43660  0.98340  Biso   1.000  H
  C72      1.0000 0.28820  0.36110  0.91740  Biso   1.000  C
  H95      1.0000 0.28000  0.31600  0.94480  Biso   1.000  H
  C73      1.0000 0.26560  0.41640  0.82120  Biso   1.000  C
  H96      1.0000 0.24070  0.41140  0.77870  Biso   1.000  H
  C74      1.0000 0.31360  0.49060  0.84190  Biso   1.000  C
  H97      1.0000 0.32180  0.53460  0.81370  Biso   1.000  H
  C75      1.0000 0.23400  0.65360  0.93900  Biso   1.000  C
  H98      1.0000 0.19510  0.60760  0.91680  Biso   1.000  H
  H99      1.0000 0.24440  0.63960  0.98340  Biso   1.000  H
  C76      1.0000 0.33200  0.65800  0.91700  Biso   1.000  C
  H100     1.0000 0.36790  0.70750  0.93800  Biso   1.000  H
  H101     1.0000 0.32010  0.67090  0.87280  Biso   1.000  H
  C77      1.0000 0.00820  0.11950  0.73450  Biso   1.000  C
  H102     1.0000 0.99960  0.17300  0.71440  Biso   1.000  H
  C78      1.0000 0.94620  0.05510  0.71420  Biso   1.000  C
  H103     1.0000 0.89600  0.06500  0.68050  Biso   1.000  H
  C79      1.0000 0.02980  0.96650  0.78960  Biso   1.000  C
  H104     1.0000 0.04010  0.91320  0.80990  Biso   1.000  H
  C80      1.0000 0.08960  0.03350  0.80810  Biso   1.000  C
  H105     1.0000 0.14050  0.02530  0.84180  Biso   1.000  H
  C81      1.0000 0.95380  0.97630  0.74080  Biso   1.000  C
  C82      1.0000 0.87860  0.90530  0.72290  Biso   1.000  C
  H106     1.0000 0.81410  0.92100  0.73360  Biso   1.000  H
  H107     1.0000 0.90050  0.85150  0.74400  Biso   1.000  H
  H108     1.0000 0.82050  0.92720  0.69550  Biso   1.000  H
  H109     1.0000 0.85750  0.87980  0.75980  Biso   1.000  H
  C83      1.0000 0.87300  0.89620  0.65530  Biso   1.000  C
  H110     1.0000 0.94070  0.89240  0.64570  Biso   1.000  H
  H111     1.0000 0.84350  0.94850  0.63550  Biso   1.000  H
  C84      1.0000 0.81710  0.82220  0.62710  Biso   1.000  C
  H112     1.0000 0.78250  0.79720  0.65900  Biso   1.000  H
  H113     1.0000 0.76630  0.84440  0.59440  Biso   1.000  H
  C85      1.0000 0.86760  0.75110  0.59980  Biso   1.000  C
  C86      1.0000 0.81480  0.68340  0.57210  Biso   1.000  C
  H114     1.0000 0.74630  0.68200  0.57240  Biso   1.000  H
  C87      1.0000 0.85540  0.62010  0.54520  Biso   1.000  C
  H115     1.0000 0.81670  0.57570  0.52490  Biso   1.000  H
  C88      1.0000 0.00590  0.68100  0.57770  Biso   1.000  C
  H116     1.0000 0.07490  0.67400  0.58370  Biso   1.000  H
  C89      1.0000 0.96960  0.75150  0.60060  Biso   1.000  C
  H117     1.0000 0.00970  0.79800  0.61620  Biso   1.000  H
  C90      1.0000 0.93200  0.84280  0.69060  Biso   1.000  C
  H118     1.0000 0.00310  0.85200  0.69820  Biso   1.000  H
  H119     1.0000 0.91650  0.78360  0.70100  Biso   1.000  H
  C91      1.0000 0.88700  0.86600  0.62600  Biso   1.000  C
  H120     1.0000 0.81630  0.87790  0.62290  Biso   1.000  H
  H121     1.0000 0.92020  0.91570  0.61090  Biso   1.000  H
  C92      1.0000 0.90590  0.78520  0.59140  Biso   1.000  C
  C93      1.0000 0.83610  0.72320  0.57670  Biso   1.000  C
  H122     1.0000 0.77020  0.73440  0.58150  Biso   1.000  H
  C94      1.0000 0.85990  0.64590  0.55520  Biso   1.000  C
  H123     1.0000 0.80830  0.60620  0.54490  Biso   1.000  H
  C95      1.0000 0.01970  0.68310  0.56120  Biso   1.000  C
  H124     1.0000 0.08370  0.67320  0.55220  Biso   1.000  H
  C96      1.0000 0.00140  0.75890  0.58730  Biso   1.000  C
  H125     1.0000 0.05470  0.79460  0.60310  Biso   1.000  H
  H126     1.0000 0.97580  0.24920  0.59540  Biso   1.000  H
  Cd3      1.0000 0.00000  0.00000  0.00000  Biso   1.000  Cd
  Cd4      1.0000 0.00000  0.50000  0.50000  Biso   1.000  Cd
  Cd5      1.0000 0.67374  0.27233  0.31896  Biso   1.000  Cd
  S5       1.0000 0.68170  0.34550  0.45377  Biso   1.000  S
  O29      1.0000 0.74320  0.36770  0.40650  Biso   1.000  O
  O30      1.0000 0.62330  0.41940  0.46580  Biso   1.000  O
  O31      1.0000 0.61770  0.27480  0.42980  Biso   1.000  O
  O32      1.0000 0.74520  0.31970  0.51030  Biso   1.000  O
  S6       1.0000 0.57157  0.15835  0.18621  Biso   1.000  S
  O33      1.0000 0.63370  0.21990  0.22120  Biso   1.000  O
  O34      1.0000 0.49310  0.12580  0.21710  Biso   1.000  O
  O35      1.0000 0.52630  0.19520  0.12630  Biso   1.000  O
  O36      1.0000 0.63200  0.08440  0.17200  Biso   1.000  O
  O37      1.0000 0.58240  0.18280  0.25250  Biso   1.000  O
  O38      1.0000 0.47740  0.11360  0.17160  Biso   1.000  O
  O39      1.0000 0.57000  0.23620  0.14970  Biso   1.000  O
  O40      1.0000 0.65210  0.10320  0.17670  Biso   1.000  O
  O41      1.0000 0.59180  0.91860  0.94350  Biso   1.000  O
  H127     1.0000 0.64110  0.88500  0.95130  Biso   1.000  H
  H128     1.0000 0.56340  0.90530  0.90840  Biso   1.000  H
  O42      1.0000 0.63910  0.00970  0.07030  Biso   1.000  O
  H129     1.0000 0.63850  0.03420  0.10500  Biso   1.000  H
  H130     1.0000 0.66800  0.96320  0.07800  Biso   1.000  H
  N13      1.0000 0.39820  0.46940  0.41080  Biso   1.000  N
  N14      1.0000 0.81060  0.31440  0.27660  Biso   1.000  N
  N15      1.0000 0.57110  0.62390  0.46180  Biso   1.000  N
  N16      1.0000 0.75280  0.14830  0.35830  Biso   1.000  N
  N17      1.0000 0.58080  0.38950  0.28150  Biso   1.000  N
  N18      1.0000 0.45160  0.87910  0.04730  Biso   1.000  N
  C97      1.0000 0.40900  0.39680  0.37980  Biso   1.000  C
  H131     1.0000 0.46640  0.36390  0.39170  Biso   1.000  H
  C98      1.0000 0.34130  0.36830  0.33230  Biso   1.000  C
  H132     1.0000 0.35260  0.31670  0.31210  Biso   1.000  H
  C99      1.0000 0.24770  0.49040  0.34360  Biso   1.000  C
  H133     1.0000 0.19210  0.52540  0.33140  Biso   1.000  H
  C100     1.0000 0.31900  0.51620  0.39100  Biso   1.000  C
  H134     1.0000 0.31130  0.56920  0.41040  Biso   1.000  H
  C101     1.0000 0.25690  0.41380  0.31370  Biso   1.000  C
  C102     1.0000 0.17610  0.38020  0.26530  Biso   1.000  C
  H135     1.0000 0.20470  0.33620  0.24130  Biso   1.000  H
  H136     1.0000 0.12720  0.35160  0.28670  Biso   1.000  H
  C103     1.0000 0.12320  0.44290  0.22100  Biso   1.000  C
  H137     1.0000 0.16970  0.46750  0.19590  Biso   1.000  H
  H138     1.0000 0.09820  0.48970  0.24430  Biso   1.000  H
  C104     1.0000 0.03950  0.40330  0.17930  Biso   1.000  C
  H139     1.0000 0.06410  0.35540  0.15690  Biso   1.000  H
  H140     1.0000 0.01090  0.44590  0.14850  Biso   1.000  H
  C105     1.0000 0.96070  0.37130  0.21400  Biso   1.000  C
  C106     1.0000 0.92900  0.28800  0.21140  Biso   1.000  C
  H141     1.0000 0.95900  0.24790  0.18790  Biso   1.000  H
  C107     1.0000 0.85600  0.26210  0.24170  Biso   1.000  C
  H142     1.0000 0.83600  0.20440  0.23820  Biso   1.000  H
  C108     1.0000 0.84260  0.39460  0.28060  Biso   1.000  C
  H143     1.0000 0.81310  0.43270  0.30570  Biso   1.000  H
  C109     1.0000 0.91450  0.42530  0.25110  Biso   1.000  C
  H144     1.0000 0.93350  0.48320  0.25570  Biso   1.000  H
  C110     1.0000 0.54530  0.70430  0.47160  Biso   1.000  C
  H145     1.0000 0.48840  0.71380  0.49000  Biso   1.000  H
  C111     1.0000 0.59710  0.77390  0.45650  Biso   1.000  C
  H146     1.0000 0.57640  0.82950  0.46510  Biso   1.000  H
  C112     1.0000 0.67900  0.76290  0.42870  Biso   1.000  C
  C113     1.0000 0.70610  0.68050  0.41860  Biso   1.000  C
  H147     1.0000 0.76220  0.66970  0.39980  Biso   1.000  H
  C114     1.0000 0.65170  0.61360  0.43580  Biso   1.000  C
  H148     1.0000 0.67250  0.55740  0.42880  Biso   1.000  H
  C115     1.0000 0.74120  0.83310  0.40380  Biso   1.000  C
  H149     1.0000 0.76290  0.81310  0.36540  Biso   1.000  H
  H150     1.0000 0.70050  0.88450  0.39380  Biso   1.000  H
  C116     1.0000 0.82890  0.85550  0.44990  Biso   1.000  C
  H151     1.0000 0.86540  0.80270  0.46270  Biso   1.000  H
  H152     1.0000 0.80620  0.87970  0.48680  Biso   1.000  H
  C117     1.0000 0.89770  0.91770  0.42720  Biso   1.000  C
  H153     1.0000 0.92790  0.89040  0.39420  Biso   1.000  H
  H154     1.0000 0.95070  0.93140  0.46130  Biso   1.000  H
  H155     1.0000 0.95570  0.90760  0.40690  Biso   1.000  H
  H156     1.0000 0.92070  0.92430  0.47170  Biso   1.000  H
  C118     1.0000 0.84890  0.99970  0.40260  Biso   1.000  C
  C119     1.0000 0.83620  0.06700  0.44070  Biso   1.000  C
  H157     1.0000 0.86080  0.06340  0.48340  Biso   1.000  H
  C120     1.0000 0.78820  0.13890  0.41740  Biso   1.000  C
  H158     1.0000 0.78000  0.18400  0.44480  Biso   1.000  H
  C121     1.0000 0.76560  0.08360  0.32120  Biso   1.000  C
  H159     1.0000 0.74070  0.08860  0.27870  Biso   1.000  H
  C122     1.0000 0.81360  0.00940  0.34190  Biso   1.000  C
  H160     1.0000 0.82180  0.96540  0.31370  Biso   1.000  H
  C123     1.0000 0.73400  0.84640  0.43900  Biso   1.000  C
  H161     1.0000 0.69510  0.89240  0.41680  Biso   1.000  H
  H162     1.0000 0.74440  0.86040  0.48340  Biso   1.000  H
  C124     1.0000 0.83200  0.84200  0.41700  Biso   1.000  C
  H163     1.0000 0.86790  0.79250  0.43800  Biso   1.000  H
  H164     1.0000 0.82010  0.82910  0.37280  Biso   1.000  H
  C125     1.0000 0.50820  0.38050  0.23450  Biso   1.000  C
  H165     1.0000 0.49960  0.32700  0.21440  Biso   1.000  H
  C126     1.0000 0.44620  0.44490  0.21420  Biso   1.000  C
  H166     1.0000 0.39600  0.43500  0.18050  Biso   1.000  H
  C127     1.0000 0.52980  0.53350  0.28960  Biso   1.000  C
  H167     1.0000 0.54010  0.58680  0.30990  Biso   1.000  H
  C128     1.0000 0.58960  0.46650  0.30810  Biso   1.000  C
  H168     1.0000 0.64050  0.47470  0.34180  Biso   1.000  H
  C129     1.0000 0.45380  0.52370  0.24080  Biso   1.000  C
  C130     1.0000 0.37860  0.59470  0.22290  Biso   1.000  C
  H169     1.0000 0.31410  0.57900  0.23360  Biso   1.000  H
  H170     1.0000 0.40050  0.64850  0.24400  Biso   1.000  H
  H171     1.0000 0.32050  0.57280  0.19550  Biso   1.000  H
  H172     1.0000 0.35750  0.62020  0.25980  Biso   1.000  H
  C131     1.0000 0.37300  0.60380  0.15530  Biso   1.000  C
  H173     1.0000 0.44070  0.60760  0.14570  Biso   1.000  H
  H174     1.0000 0.34350  0.55150  0.13550  Biso   1.000  H
  C132     1.0000 0.31710  0.67780  0.12710  Biso   1.000  C
  H175     1.0000 0.28250  0.70280  0.15900  Biso   1.000  H
  H176     1.0000 0.26630  0.65560  0.09440  Biso   1.000  H
  C133     1.0000 0.36760  0.74890  0.09980  Biso   1.000  C
  C134     1.0000 0.31480  0.81660  0.07210  Biso   1.000  C
  H177     1.0000 0.24630  0.81800  0.07240  Biso   1.000  H
  C135     1.0000 0.35540  0.87990  0.04520  Biso   1.000  C
  H178     1.0000 0.31670  0.92430  0.02490  Biso   1.000  H
  C136     1.0000 0.50590  0.81900  0.07770  Biso   1.000  C
  H179     1.0000 0.57490  0.82600  0.08370  Biso   1.000  H
  C137     1.0000 0.46960  0.74850  0.10060  Biso   1.000  C
  H180     1.0000 0.50970  0.70200  0.11620  Biso   1.000  H
  C138     1.0000 0.43200  0.65720  0.19060  Biso   1.000  C
  H181     1.0000 0.50310  0.64800  0.19820  Biso   1.000  H
  H182     1.0000 0.41650  0.71640  0.20100  Biso   1.000  H
  C139     1.0000 0.38700  0.63400  0.12600  Biso   1.000  C
  H183     1.0000 0.31630  0.62210  0.12290  Biso   1.000  H
  H184     1.0000 0.42020  0.58430  0.11090  Biso   1.000  H
  C140     1.0000 0.40590  0.71480  0.09140  Biso   1.000  C
  C141     1.0000 0.33610  0.77680  0.07670  Biso   1.000  C
  H185     1.0000 0.27020  0.76560  0.08150  Biso   1.000  H
  C142     1.0000 0.35990  0.85410  0.05520  Biso   1.000  C
  H186     1.0000 0.30830  0.89380  0.04490  Biso   1.000  H
  C143     1.0000 0.51970  0.81690  0.06120  Biso   1.000  C
  H187     1.0000 0.58370  0.82680  0.05220  Biso   1.000  H
  C144     1.0000 0.50140  0.74110  0.08730  Biso   1.000  C
  H188     1.0000 0.55470  0.70540  0.10310  Biso   1.000  H
  H189     1.0000 0.47580  0.25080  0.09540  Biso   1.000  H
  Cd6      1.0000 0.32626  0.72767  0.68104  Biso   1.000  Cd
  S7       1.0000 0.31830  0.65450  0.54623  Biso   1.000  S
  O43      1.0000 0.25680  0.63230  0.59350  Biso   1.000  O
  O44      1.0000 0.37670  0.58060  0.53420  Biso   1.000  O
  O45      1.0000 0.38230  0.72520  0.57020  Biso   1.000  O
  O46      1.0000 0.25480  0.68030  0.48970  Biso   1.000  O
  S8       1.0000 0.42843  0.84165  0.81379  Biso   1.000  S
  O47      1.0000 0.36630  0.78010  0.77880  Biso   1.000  O
  O48      1.0000 0.50690  0.87420  0.78290  Biso   1.000  O
  O49      1.0000 0.47370  0.80480  0.87370  Biso   1.000  O
  O50      1.0000 0.36800  0.91560  0.82800  Biso   1.000  O
  O51      1.0000 0.41760  0.81720  0.74750  Biso   1.000  O
  O52      1.0000 0.52260  0.88640  0.82840  Biso   1.000  O
  O53      1.0000 0.43000  0.76380  0.85030  Biso   1.000  O
  O54      1.0000 0.34790  0.89680  0.82330  Biso   1.000  O
  O55      1.0000 0.40820  0.08140  0.05650  Biso   1.000  O
  H190     1.0000 0.35890  0.11500  0.04870  Biso   1.000  H
  H191     1.0000 0.43660  0.09470  0.09160  Biso   1.000  H
  O56      1.0000 0.36090  0.99030  0.92970  Biso   1.000  O
  H192     1.0000 0.36150  0.96580  0.89500  Biso   1.000  H
  H193     1.0000 0.33200  0.03680  0.92200  Biso   1.000  H
  N19      1.0000 0.60180  0.53060  0.58920  Biso   1.000  N
  N20      1.0000 0.18940  0.68560  0.72340  Biso   1.000  N
  N21      1.0000 0.42890  0.37610  0.53820  Biso   1.000  N
  N22      1.0000 0.24720  0.85170  0.64170  Biso   1.000  N
  N23      1.0000 0.41920  0.61050  0.71850  Biso   1.000  N
  N24      1.0000 0.54840  0.12090  0.95270  Biso   1.000  N
  C145     1.0000 0.59100  0.60320  0.62020  Biso   1.000  C
  H194     1.0000 0.53360  0.63610  0.60830  Biso   1.000  H
  C146     1.0000 0.65870  0.63170  0.66770  Biso   1.000  C
  H195     1.0000 0.64740  0.68330  0.68790  Biso   1.000  H
  C147     1.0000 0.75230  0.50960  0.65640  Biso   1.000  C
  H196     1.0000 0.80790  0.47460  0.66860  Biso   1.000  H
  C148     1.0000 0.68100  0.48380  0.60900  Biso   1.000  C
  H197     1.0000 0.68870  0.43080  0.58960  Biso   1.000  H
  C149     1.0000 0.74310  0.58620  0.68630  Biso   1.000  C
  C150     1.0000 0.82390  0.61980  0.73470  Biso   1.000  C
  H198     1.0000 0.79530  0.66380  0.75870  Biso   1.000  H
  H199     1.0000 0.87280  0.64840  0.71330  Biso   1.000  H
  C151     1.0000 0.87680  0.55710  0.77900  Biso   1.000  C
  H200     1.0000 0.83030  0.53250  0.80410  Biso   1.000  H
  H201     1.0000 0.90180  0.51030  0.75570  Biso   1.000  H
  C152     1.0000 0.96050  0.59670  0.82070  Biso   1.000  C
  H202     1.0000 0.93590  0.64460  0.84310  Biso   1.000  H
  H203     1.0000 0.98910  0.55410  0.85150  Biso   1.000  H
  C153     1.0000 0.03930  0.62870  0.78600  Biso   1.000  C
  C154     1.0000 0.07100  0.71200  0.78860  Biso   1.000  C
  H204     1.0000 0.04100  0.75210  0.81210  Biso   1.000  H
  C155     1.0000 0.14400  0.73790  0.75830  Biso   1.000  C
  H205     1.0000 0.16400  0.79560  0.76180  Biso   1.000  H
  C156     1.0000 0.15740  0.60540  0.71940  Biso   1.000  C
  H206     1.0000 0.18690  0.56730  0.69430  Biso   1.000  H
  C157     1.0000 0.08550  0.57470  0.74890  Biso   1.000  C
  H207     1.0000 0.06650  0.51680  0.74430  Biso   1.000  H
  C158     1.0000 0.45470  0.29570  0.52840  Biso   1.000  C
  H208     1.0000 0.51160  0.28620  0.51000  Biso   1.000  H
  C159     1.0000 0.40290  0.22610  0.54350  Biso   1.000  C
  H209     1.0000 0.42360  0.17050  0.53490  Biso   1.000  H
  C160     1.0000 0.32100  0.23710  0.57130  Biso   1.000  C
  C161     1.0000 0.29390  0.31950  0.58140  Biso   1.000  C
  H210     1.0000 0.23780  0.33030  0.60020  Biso   1.000  H
  C162     1.0000 0.34830  0.38640  0.56420  Biso   1.000  C
  H211     1.0000 0.32750  0.44260  0.57120  Biso   1.000  H
  C163     1.0000 0.25880  0.16690  0.59620  Biso   1.000  C
  H212     1.0000 0.23710  0.18690  0.63460  Biso   1.000  H
  H213     1.0000 0.29950  0.11550  0.60620  Biso   1.000  H
  C164     1.0000 0.17110  0.14450  0.55010  Biso   1.000  C
  H214     1.0000 0.13460  0.19730  0.53730  Biso   1.000  H
  H215     1.0000 0.19380  0.12030  0.51320  Biso   1.000  H
  C165     1.0000 0.10230  0.08230  0.57280  Biso   1.000  C
  H216     1.0000 0.07210  0.10960  0.60580  Biso   1.000  H
  H217     1.0000 0.04930  0.06860  0.53870  Biso   1.000  H
  H218     1.0000 0.04430  0.09240  0.59310  Biso   1.000  H
  H219     1.0000 0.07930  0.07570  0.52830  Biso   1.000  H
  C166     1.0000 0.15110  0.00030  0.59740  Biso   1.000  C
  C167     1.0000 0.16380  0.93300  0.55930  Biso   1.000  C
  H220     1.0000 0.13920  0.93660  0.51660  Biso   1.000  H
  C168     1.0000 0.21180  0.86110  0.58260  Biso   1.000  C
  H221     1.0000 0.22000  0.81600  0.55520  Biso   1.000  H
  C169     1.0000 0.23440  0.91640  0.67880  Biso   1.000  C
  H222     1.0000 0.25930  0.91140  0.72130  Biso   1.000  H
  C170     1.0000 0.18640  0.99060  0.65810  Biso   1.000  C
  H223     1.0000 0.17820  0.03460  0.68630  Biso   1.000  H
  C171     1.0000 0.26600  0.15360  0.56100  Biso   1.000  C
  H224     1.0000 0.30490  0.10760  0.58320  Biso   1.000  H
  H225     1.0000 0.25560  0.13960  0.51660  Biso   1.000  H
  C172     1.0000 0.16800  0.15800  0.58300  Biso   1.000  C
  H226     1.0000 0.13210  0.20750  0.56200  Biso   1.000  H
  H227     1.0000 0.17990  0.17090  0.62720  Biso   1.000  H
  C173     1.0000 0.49180  0.61950  0.76550  Biso   1.000  C
  H228     1.0000 0.50040  0.67300  0.78560  Biso   1.000  H
  C174     1.0000 0.55380  0.55510  0.78580  Biso   1.000  C
  H229     1.0000 0.60400  0.56500  0.81950  Biso   1.000  H
  C175     1.0000 0.47020  0.46650  0.71040  Biso   1.000  C
  H230     1.0000 0.45990  0.41320  0.69010  Biso   1.000  H
  C176     1.0000 0.41040  0.53350  0.69190  Biso   1.000  C
  H231     1.0000 0.35950  0.52530  0.65820  Biso   1.000  H
  C177     1.0000 0.54620  0.47630  0.75920  Biso   1.000  C
  C178     1.0000 0.62140  0.40530  0.77710  Biso   1.000  C
  H232     1.0000 0.68590  0.42100  0.76640  Biso   1.000  H
  H233     1.0000 0.59950  0.35150  0.75600  Biso   1.000  H
  H234     1.0000 0.67950  0.42720  0.80450  Biso   1.000  H
  H235     1.0000 0.64250  0.37980  0.74020  Biso   1.000  H
  C179     1.0000 0.62700  0.39620  0.84470  Biso   1.000  C
  H236     1.0000 0.55930  0.39240  0.85430  Biso   1.000  H
  H237     1.0000 0.65650  0.44850  0.86450  Biso   1.000  H
  C180     1.0000 0.68290  0.32220  0.87290  Biso   1.000  C
  H238     1.0000 0.71750  0.29720  0.84100  Biso   1.000  H
  H239     1.0000 0.73370  0.34440  0.90560  Biso   1.000  H
  C181     1.0000 0.63240  0.25110  0.90020  Biso   1.000  C
  C182     1.0000 0.68520  0.18340  0.92790  Biso   1.000  C
  H240     1.0000 0.75370  0.18200  0.92760  Biso   1.000  H
  C183     1.0000 0.64460  0.12010  0.95480  Biso   1.000  C
  H241     1.0000 0.68330  0.07570  0.97510  Biso   1.000  H
  C184     1.0000 0.49410  0.18100  0.92230  Biso   1.000  C
  H242     1.0000 0.42510  0.17400  0.91630  Biso   1.000  H
  C185     1.0000 0.53040  0.25150  0.89940  Biso   1.000  C
  H243     1.0000 0.49030  0.29800  0.88380  Biso   1.000  H
  C186     1.0000 0.56800  0.34280  0.80940  Biso   1.000  C
  H244     1.0000 0.49690  0.35200  0.80180  Biso   1.000  H
  H245     1.0000 0.58350  0.28360  0.79900  Biso   1.000  H
  C187     1.0000 0.61300  0.36600  0.87400  Biso   1.000  C
  H246     1.0000 0.68370  0.37790  0.87710  Biso   1.000  H
  H247     1.0000 0.57980  0.41570  0.88910  Biso   1.000  H
  C188     1.0000 0.59410  0.28520  0.90860  Biso   1.000  C
  C189     1.0000 0.66390  0.22320  0.92330  Biso   1.000  C
  H248     1.0000 0.72980  0.23440  0.91850  Biso   1.000  H
  C190     1.0000 0.64010  0.14590  0.94480  Biso   1.000  C
  H249     1.0000 0.69170  0.10620  0.95510  Biso   1.000  H
  C191     1.0000 0.48030  0.18310  0.93880  Biso   1.000  C
  H250     1.0000 0.41630  0.17320  0.94780  Biso   1.000  H
  C192     1.0000 0.49860  0.25890  0.91270  Biso   1.000  C
  H251     1.0000 0.44530  0.29460  0.89690  Biso   1.000  H
  H252     1.0000 0.52420  0.74920  0.90460  Biso   1.000  H
  Cd7      1.0000 0.50000  0.50000  0.50000  Biso   1.000  Cd
  Cd8      1.0000 0.50000  0.00000  0.00000  Biso   1.000  Cd
