data_image0
_cell_length_a       13.569
_cell_length_b       13.724
_cell_length_c       27.269
_cell_angle_alpha    90
_cell_angle_beta     90
_cell_angle_gamma    90

_symmetry_space_group_name_H-M    P 1
_symmetry_int_tables_number       1

loop_
  _symmetry_equiv_pos_as_xyz
  'x, y, z'

loop_
  _atom_site_label
  _atom_site_occupancy
  _atom_site_fract_x
  _atom_site_fract_y
  _atom_site_fract_z
  _atom_site_thermal_displace_type
  _atom_site_B_iso_or_equiv
  _atom_site_type_symbol
  Cd1      1.0000 0.99629  0.16801  0.12556  Biso   1.000  Cd
  Cd2      1.0000 0.87208  0.53744  0.19144  Biso   1.000  Cd
  Cd3      1.0000 0.11566  0.78405  0.07553  Biso   1.000  Cd
  Cd4      1.0000 0.49629  0.33199  0.87444  Biso   1.000  Cd
  Cd5      1.0000 0.37208  0.96256  0.80856  Biso   1.000  Cd
  Cd6      1.0000 0.61566  0.71595  0.92447  Biso   1.000  Cd
  Cd7      1.0000 0.50371  0.83199  0.62556  Biso   1.000  Cd
  Cd8      1.0000 0.62792  0.46256  0.69144  Biso   1.000  Cd
  Cd9      1.0000 0.38434  0.21595  0.57553  Biso   1.000  Cd
  Cd10     1.0000 0.00371  0.66801  0.37444  Biso   1.000  Cd
  Cd11     1.0000 0.12792  0.03744  0.30856  Biso   1.000  Cd
  Cd12     1.0000 0.88434  0.28405  0.42447  Biso   1.000  Cd
  Cd13     1.0000 0.00371  0.83199  0.87444  Biso   1.000  Cd
  Cd14     1.0000 0.12792  0.46256  0.80856  Biso   1.000  Cd
  Cd15     1.0000 0.88434  0.21595  0.92447  Biso   1.000  Cd
  Cd16     1.0000 0.50371  0.66801  0.12556  Biso   1.000  Cd
  Cd17     1.0000 0.62792  0.03744  0.19144  Biso   1.000  Cd
  Cd18     1.0000 0.38434  0.28405  0.07553  Biso   1.000  Cd
  Cd19     1.0000 0.49629  0.16801  0.37444  Biso   1.000  Cd
  Cd20     1.0000 0.37208  0.53744  0.30856  Biso   1.000  Cd
  Cd21     1.0000 0.61566  0.78405  0.42447  Biso   1.000  Cd
  Cd22     1.0000 0.99629  0.33199  0.62556  Biso   1.000  Cd
  Cd23     1.0000 0.87208  0.96256  0.69144  Biso   1.000  Cd
  Cd24     1.0000 0.11566  0.71595  0.57553  Biso   1.000  Cd
  C1       1.0000 0.92610  0.39360  0.16560  Biso   1.000  C
  C2       1.0000 0.76600  0.08460  0.15660  Biso   1.000  C
  C3       1.0000 0.07520  0.93460  0.09620  Biso   1.000  C
  C4       1.0000 0.22750  0.24860  0.08790  Biso   1.000  C
  C5       1.0000 0.02050  0.67760  0.11390  Biso   1.000  C
  C6       1.0000 0.91610  0.21010  0.00510  Biso   1.000  C
  C7       1.0000 0.07380  0.10050  0.23950  Biso   1.000  C
  C8       1.0000 0.42610  0.10640  0.83440  Biso   1.000  C
  C9       1.0000 0.26600  0.41540  0.84340  Biso   1.000  C
  C10      1.0000 0.57520  0.56540  0.90380  Biso   1.000  C
  C11      1.0000 0.72750  0.25140  0.91210  Biso   1.000  C
  C12      1.0000 0.52050  0.82240  0.88610  Biso   1.000  C
  C13      1.0000 0.41610  0.28990  0.99490  Biso   1.000  C
  C14      1.0000 0.57380  0.39950  0.76050  Biso   1.000  C
  C15      1.0000 0.57390  0.60640  0.66560  Biso   1.000  C
  C16      1.0000 0.73400  0.91540  0.65660  Biso   1.000  C
  C17      1.0000 0.42480  0.06540  0.59620  Biso   1.000  C
  C18      1.0000 0.27250  0.75140  0.58790  Biso   1.000  C
  C19      1.0000 0.47950  0.32240  0.61390  Biso   1.000  C
  C20      1.0000 0.58390  0.78990  0.50510  Biso   1.000  C
  C21      1.0000 0.42620  0.89950  0.73950  Biso   1.000  C
  C22      1.0000 0.07390  0.89360  0.33440  Biso   1.000  C
  C23      1.0000 0.23400  0.58460  0.34340  Biso   1.000  C
  C24      1.0000 0.92480  0.43460  0.40380  Biso   1.000  C
  C25      1.0000 0.77250  0.74860  0.41210  Biso   1.000  C
  C26      1.0000 0.97950  0.17760  0.38610  Biso   1.000  C
  C27      1.0000 0.08390  0.71010  0.49490  Biso   1.000  C
  C28      1.0000 0.92620  0.60050  0.26050  Biso   1.000  C
  C29      1.0000 0.07390  0.60640  0.83440  Biso   1.000  C
  C30      1.0000 0.23400  0.91540  0.84340  Biso   1.000  C
  C31      1.0000 0.92480  0.06540  0.90380  Biso   1.000  C
  C32      1.0000 0.77250  0.75140  0.91210  Biso   1.000  C
  C33      1.0000 0.97950  0.32240  0.88610  Biso   1.000  C
  C34      1.0000 0.08390  0.78990  0.99490  Biso   1.000  C
  C35      1.0000 0.92620  0.89950  0.76050  Biso   1.000  C
  C36      1.0000 0.57390  0.89360  0.16560  Biso   1.000  C
  C37      1.0000 0.73400  0.58460  0.15660  Biso   1.000  C
  C38      1.0000 0.42480  0.43460  0.09620  Biso   1.000  C
  C39      1.0000 0.27250  0.74860  0.08790  Biso   1.000  C
  C40      1.0000 0.47950  0.17760  0.11390  Biso   1.000  C
  C41      1.0000 0.58390  0.71010  0.00510  Biso   1.000  C
  C42      1.0000 0.42620  0.60050  0.23950  Biso   1.000  C
  C43      1.0000 0.42610  0.39360  0.33440  Biso   1.000  C
  C44      1.0000 0.26600  0.08460  0.34340  Biso   1.000  C
  C45      1.0000 0.57520  0.93460  0.40380  Biso   1.000  C
  C46      1.0000 0.72750  0.24860  0.41210  Biso   1.000  C
  C47      1.0000 0.52050  0.67760  0.38610  Biso   1.000  C
  C48      1.0000 0.41610  0.21010  0.49490  Biso   1.000  C
  C49      1.0000 0.57380  0.10050  0.26050  Biso   1.000  C
  C50      1.0000 0.92610  0.10640  0.66560  Biso   1.000  C
  C51      1.0000 0.76600  0.41540  0.65660  Biso   1.000  C
  C52      1.0000 0.07520  0.56540  0.59620  Biso   1.000  C
  C53      1.0000 0.22750  0.25140  0.58790  Biso   1.000  C
  C54      1.0000 0.02050  0.82240  0.61390  Biso   1.000  C
  C55      1.0000 0.91610  0.28990  0.50510  Biso   1.000  C
  C56      1.0000 0.07380  0.39950  0.73950  Biso   1.000  C
  N1       1.0000 0.95100  0.32100  0.14910  Biso   1.000  N
  N2       1.0000 0.83810  0.10800  0.14120  Biso   1.000  N
  N3       1.0000 0.05000  0.01140  0.10220  Biso   1.000  N
  N4       1.0000 0.15170  0.22620  0.09800  Biso   1.000  N
  N5       1.0000 0.97270  0.62600  0.13520  Biso   1.000  N
  N6       1.0000 0.93840  0.19790  0.04430  Biso   1.000  N
  N7       1.0000 0.04860  0.13060  0.20380  Biso   1.000  N
  N8       1.0000 0.45100  0.17900  0.85090  Biso   1.000  N
  N9       1.0000 0.33810  0.39200  0.85880  Biso   1.000  N
  N10      1.0000 0.55000  0.48860  0.89780  Biso   1.000  N
  N11      1.0000 0.65170  0.27380  0.90200  Biso   1.000  N
  N12      1.0000 0.47270  0.87400  0.86480  Biso   1.000  N
  N13      1.0000 0.43840  0.30210  0.95570  Biso   1.000  N
  N14      1.0000 0.54860  0.36940  0.79620  Biso   1.000  N
  N15      1.0000 0.54900  0.67900  0.64910  Biso   1.000  N
  N16      1.0000 0.66190  0.89200  0.64120  Biso   1.000  N
  N17      1.0000 0.45000  0.98860  0.60220  Biso   1.000  N
  N18      1.0000 0.34830  0.77380  0.59800  Biso   1.000  N
  N19      1.0000 0.52730  0.37400  0.63520  Biso   1.000  N
  N20      1.0000 0.56160  0.80210  0.54430  Biso   1.000  N
  N21      1.0000 0.45140  0.86940  0.70380  Biso   1.000  N
  N22      1.0000 0.04900  0.82100  0.35090  Biso   1.000  N
  N23      1.0000 0.16190  0.60800  0.35880  Biso   1.000  N
  N24      1.0000 0.95000  0.51140  0.39780  Biso   1.000  N
  N25      1.0000 0.84830  0.72620  0.40200  Biso   1.000  N
  N26      1.0000 0.02730  0.12600  0.36480  Biso   1.000  N
  N27      1.0000 0.06160  0.69790  0.45570  Biso   1.000  N
  N28      1.0000 0.95140  0.63060  0.29620  Biso   1.000  N
  N29      1.0000 0.04900  0.67900  0.85090  Biso   1.000  N
  N30      1.0000 0.16190  0.89200  0.85880  Biso   1.000  N
  N31      1.0000 0.95000  0.98860  0.89780  Biso   1.000  N
  N32      1.0000 0.84830  0.77380  0.90200  Biso   1.000  N
  N33      1.0000 0.02730  0.37400  0.86480  Biso   1.000  N
  N34      1.0000 0.06160  0.80210  0.95570  Biso   1.000  N
  N35      1.0000 0.95140  0.86940  0.79620  Biso   1.000  N
  N36      1.0000 0.54900  0.82100  0.14910  Biso   1.000  N
  N37      1.0000 0.66190  0.60800  0.14120  Biso   1.000  N
  N38      1.0000 0.45000  0.51140  0.10220  Biso   1.000  N
  N39      1.0000 0.34830  0.72620  0.09800  Biso   1.000  N
  N40      1.0000 0.52730  0.12600  0.13520  Biso   1.000  N
  N41      1.0000 0.56160  0.69790  0.04430  Biso   1.000  N
  N42      1.0000 0.45140  0.63060  0.20380  Biso   1.000  N
  N43      1.0000 0.45100  0.32100  0.35090  Biso   1.000  N
  N44      1.0000 0.33810  0.10800  0.35880  Biso   1.000  N
  N45      1.0000 0.55000  0.01140  0.39780  Biso   1.000  N
  N46      1.0000 0.65170  0.22620  0.40200  Biso   1.000  N
  N47      1.0000 0.47270  0.62600  0.36480  Biso   1.000  N
  N48      1.0000 0.43840  0.19790  0.45570  Biso   1.000  N
  N49      1.0000 0.54860  0.13060  0.29620  Biso   1.000  N
  N50      1.0000 0.95100  0.17900  0.64910  Biso   1.000  N
  N51      1.0000 0.83810  0.39200  0.64120  Biso   1.000  N
  N52      1.0000 0.05000  0.48860  0.60220  Biso   1.000  N
  N53      1.0000 0.15170  0.27380  0.59800  Biso   1.000  N
  N54      1.0000 0.97270  0.87400  0.63520  Biso   1.000  N
  N55      1.0000 0.93840  0.30210  0.54430  Biso   1.000  N
  N56      1.0000 0.04860  0.36940  0.70380  Biso   1.000  N
