data_image0
_cell_length_a       8.0154
_cell_length_b       30.175
_cell_length_c       15.322
_cell_angle_alpha    90
_cell_angle_beta     90
_cell_angle_gamma    90

_symmetry_space_group_name_H-M    "P 1"
_symmetry_int_tables_number       1

loop_
  _symmetry_equiv_pos_as_xyz
  'x, y, z'

loop_
  _atom_site_label
  _atom_site_occupancy
  _atom_site_fract_x
  _atom_site_fract_y
  _atom_site_fract_z
  _atom_site_thermal_displace_type
  _atom_site_B_iso_or_equiv
  _atom_site_type_symbol
  Eu1      1.0000 0.43541  0.90717  0.70442  Biso   1.000  Eu
  O1       1.0000 0.25420  0.95990  0.65000  Biso   1.000  O
  O2       1.0000 0.00120  0.96990  0.70880  Biso   1.000  O
  O3       1.0000 0.39190  0.04200  0.38500  Biso   1.000  O
  O4       1.0000 0.23600  0.09690  0.33720  Biso   1.000  O
  O5       1.0000 0.15680  0.86920  0.68310  Biso   1.000  O
  O6       1.0000 0.98770  0.83050  0.76950  Biso   1.000  O
  O7       1.0000 0.43690  0.88250  0.55410  Biso   1.000  O
  N1       1.0000 0.92700  0.08240  0.56030  Biso   1.000  N
  N2       1.0000 0.47960  0.89440  0.41040  Biso   1.000  N
  C1       1.0000 0.11710  0.98000  0.65820  Biso   1.000  C
  C2       1.0000 0.09260  0.01950  0.60020  Biso   1.000  C
  C3       1.0000 0.95860  0.04840  0.61140  Biso   1.000  C
  H1       1.0000 0.88540  0.04320  0.65900  Biso   1.000  H
  C4       1.0000 0.02520  0.08740  0.49080  Biso   1.000  C
  H2       1.0000 0.00000  0.11060  0.45110  Biso   1.000  H
  C5       1.0000 0.16220  0.06060  0.47270  Biso   1.000  C
  C6       1.0000 0.19750  0.02680  0.52980  Biso   1.000  C
  H3       1.0000 0.29290  0.00860  0.52110  Biso   1.000  H
  C7       1.0000 0.26820  0.06620  0.39410  Biso   1.000  C
  C8       1.0000 0.09430  0.83200  0.71000  Biso   1.000  C
  C9       1.0000 0.14800  0.78960  0.66860  Biso   1.000  C
  C10      1.0000 0.24200  0.78770  0.59170  Biso   1.000  C
  H4       1.0000 0.27300  0.81490  0.56500  Biso   1.000  H
  C11      1.0000 0.43920  0.90590  0.48690  Biso   1.000  C
  H5       1.0000 0.40680  0.93600  0.49410  Biso   1.000  H
  C12      1.0000 0.47840  0.92660  0.33600  Biso   1.000  C
  H6       1.0000 0.43610  0.95530  0.35630  Biso   1.000  H
  H7       1.0000 0.59210  0.93030  0.31360  Biso   1.000  H
  H8       1.0000 0.40610  0.91540  0.28940  Biso   1.000  H
  C13      1.0000 0.59100  0.85620  0.39320  Biso   1.000  C
  H9       1.0000 0.58900  0.83610  0.44340  Biso   1.000  H
  H10      1.0000 0.55270  0.84040  0.34100  Biso   1.000  H
  H11      1.0000 0.70520  0.86680  0.38390  Biso   1.000  H
  O8       1.0000 0.66800  0.84070  0.16640  Biso   1.000  O
  C14      1.0000 0.42500  0.65900  0.38800  Biso   1.000  C
  H12      1.0000 0.30520  0.66060  0.37720  Biso   1.000  H
  H13      1.0000 0.48640  0.66930  0.33680  Biso   1.000  H
  H14      1.0000 0.45340  0.67770  0.43850  Biso   1.000  H
  Eu2      1.0000 0.06459  0.09283  0.20442  Biso   1.000  Eu
  O9       1.0000 0.24580  0.04010  0.15000  Biso   1.000  O
  O10      1.0000 0.49880  0.03010  0.20880  Biso   1.000  O
  O11      1.0000 0.10810  0.95800  0.88500  Biso   1.000  O
  O12      1.0000 0.26400  0.90310  0.83720  Biso   1.000  O
  O13      1.0000 0.34320  0.13080  0.18310  Biso   1.000  O
  O14      1.0000 0.51230  0.16950  0.26950  Biso   1.000  O
  O15      1.0000 0.06310  0.11750  0.05410  Biso   1.000  O
  N3       1.0000 0.57300  0.91760  0.06030  Biso   1.000  N
  N4       1.0000 0.02040  0.10560  0.91040  Biso   1.000  N
  C15      1.0000 0.38290  0.02000  0.15820  Biso   1.000  C
  C16      1.0000 0.40740  0.98050  0.10020  Biso   1.000  C
  C17      1.0000 0.54140  0.95160  0.11140  Biso   1.000  C
  H15      1.0000 0.61460  0.95680  0.15900  Biso   1.000  H
  C18      1.0000 0.47480  0.91260  0.99080  Biso   1.000  C
  H16      1.0000 0.50000  0.88940  0.95110  Biso   1.000  H
  C19      1.0000 0.33780  0.93940  0.97270  Biso   1.000  C
  C20      1.0000 0.30250  0.97320  0.02980  Biso   1.000  C
  H17      1.0000 0.20710  0.99140  0.02110  Biso   1.000  H
  C21      1.0000 0.23180  0.93380  0.89410  Biso   1.000  C
  C22      1.0000 0.40570  0.16800  0.21000  Biso   1.000  C
  C23      1.0000 0.35200  0.21040  0.16860  Biso   1.000  C
  C24      1.0000 0.25800  0.21230  0.09170  Biso   1.000  C
  H18      1.0000 0.22700  0.18510  0.06500  Biso   1.000  H
  C25      1.0000 0.06080  0.09410  0.98690  Biso   1.000  C
  H19      1.0000 0.09320  0.06400  0.99410  Biso   1.000  H
  C26      1.0000 0.02160  0.07340  0.83600  Biso   1.000  C
  H20      1.0000 0.06390  0.04470  0.85630  Biso   1.000  H
  H21      1.0000 0.90790  0.06970  0.81360  Biso   1.000  H
  H22      1.0000 0.09390  0.08460  0.78940  Biso   1.000  H
  C27      1.0000 0.90900  0.14380  0.89320  Biso   1.000  C
  H23      1.0000 0.91100  0.16390  0.94340  Biso   1.000  H
  H24      1.0000 0.94730  0.15960  0.84100  Biso   1.000  H
  H25      1.0000 0.79480  0.13320  0.88390  Biso   1.000  H
  O16      1.0000 0.83200  0.15930  0.66640  Biso   1.000  O
  C28      1.0000 0.07500  0.34100  0.88800  Biso   1.000  C
  H26      1.0000 0.19480  0.33940  0.87720  Biso   1.000  H
  H27      1.0000 0.01360  0.33070  0.83680  Biso   1.000  H
  H28      1.0000 0.04660  0.32230  0.93850  Biso   1.000  H
  Eu3      1.0000 0.56459  0.40717  0.29558  Biso   1.000  Eu
  O17      1.0000 0.74580  0.45990  0.35000  Biso   1.000  O
  O18      1.0000 0.99880  0.46990  0.29120  Biso   1.000  O
  O19      1.0000 0.60810  0.54200  0.61500  Biso   1.000  O
  O20      1.0000 0.76400  0.59690  0.66280  Biso   1.000  O
  O21      1.0000 0.84320  0.36920  0.31690  Biso   1.000  O
  O22      1.0000 0.01230  0.33050  0.23050  Biso   1.000  O
  O23      1.0000 0.56310  0.38250  0.44590  Biso   1.000  O
  N5       1.0000 0.07300  0.58240  0.43970  Biso   1.000  N
  N6       1.0000 0.52040  0.39440  0.58960  Biso   1.000  N
  C29      1.0000 0.88290  0.48000  0.34180  Biso   1.000  C
  C30      1.0000 0.90740  0.51950  0.39980  Biso   1.000  C
  C31      1.0000 0.04140  0.54840  0.38860  Biso   1.000  C
  H29      1.0000 0.11460  0.54320  0.34100  Biso   1.000  H
  C32      1.0000 0.97480  0.58740  0.50920  Biso   1.000  C
  H30      1.0000 0.00000  0.61060  0.54890  Biso   1.000  H
  C33      1.0000 0.83780  0.56060  0.52730  Biso   1.000  C
  C34      1.0000 0.80250  0.52680  0.47020  Biso   1.000  C
  H31      1.0000 0.70710  0.50860  0.47890  Biso   1.000  H
  C35      1.0000 0.73180  0.56620  0.60590  Biso   1.000  C
  C36      1.0000 0.90570  0.33200  0.29000  Biso   1.000  C
  C37      1.0000 0.85200  0.28960  0.33140  Biso   1.000  C
  C38      1.0000 0.75800  0.28770  0.40830  Biso   1.000  C
  H32      1.0000 0.72700  0.31490  0.43500  Biso   1.000  H
  C39      1.0000 0.56080  0.40590  0.51310  Biso   1.000  C
  H33      1.0000 0.59320  0.43600  0.50590  Biso   1.000  H
  C40      1.0000 0.52160  0.42660  0.66400  Biso   1.000  C
  H34      1.0000 0.56390  0.45530  0.64370  Biso   1.000  H
  H35      1.0000 0.40790  0.43030  0.68640  Biso   1.000  H
  H36      1.0000 0.59390  0.41540  0.71060  Biso   1.000  H
  C41      1.0000 0.40900  0.35620  0.60680  Biso   1.000  C
  H37      1.0000 0.41100  0.33610  0.55660  Biso   1.000  H
  H38      1.0000 0.44730  0.34040  0.65900  Biso   1.000  H
  H39      1.0000 0.29480  0.36680  0.61610  Biso   1.000  H
  O24      1.0000 0.33200  0.34070  0.83360  Biso   1.000  O
  C42      1.0000 0.57500  0.15900  0.61200  Biso   1.000  C
  H40      1.0000 0.69480  0.16060  0.62280  Biso   1.000  H
  H41      1.0000 0.51360  0.16930  0.66320  Biso   1.000  H
  H42      1.0000 0.54660  0.17770  0.56150  Biso   1.000  H
  Eu4      1.0000 0.93541  0.59283  0.79558  Biso   1.000  Eu
  O25      1.0000 0.75420  0.54010  0.85000  Biso   1.000  O
  O26      1.0000 0.50120  0.53010  0.79120  Biso   1.000  O
  O27      1.0000 0.89190  0.45800  0.11500  Biso   1.000  O
  O28      1.0000 0.73600  0.40310  0.16280  Biso   1.000  O
  O29      1.0000 0.65680  0.63080  0.81690  Biso   1.000  O
  O30      1.0000 0.48770  0.66950  0.73050  Biso   1.000  O
  O31      1.0000 0.93690  0.61750  0.94590  Biso   1.000  O
  N7       1.0000 0.42700  0.41760  0.93970  Biso   1.000  N
  N8       1.0000 0.97960  0.60560  0.08960  Biso   1.000  N
  C43      1.0000 0.61710  0.52000  0.84180  Biso   1.000  C
  C44      1.0000 0.59260  0.48050  0.89980  Biso   1.000  C
  C45      1.0000 0.45860  0.45160  0.88860  Biso   1.000  C
  H43      1.0000 0.38540  0.45680  0.84100  Biso   1.000  H
  C46      1.0000 0.52520  0.41260  0.00920  Biso   1.000  C
  H44      1.0000 0.50000  0.38940  0.04890  Biso   1.000  H
  C47      1.0000 0.66220  0.43940  0.02730  Biso   1.000  C
  C48      1.0000 0.69750  0.47320  0.97020  Biso   1.000  C
  H45      1.0000 0.79290  0.49140  0.97890  Biso   1.000  H
  C49      1.0000 0.76820  0.43380  0.10590  Biso   1.000  C
  C50      1.0000 0.59430  0.66800  0.79000  Biso   1.000  C
  C51      1.0000 0.64800  0.71040  0.83140  Biso   1.000  C
  C52      1.0000 0.74200  0.71230  0.90830  Biso   1.000  C
  H46      1.0000 0.77300  0.68510  0.93500  Biso   1.000  H
  C53      1.0000 0.93920  0.59410  0.01310  Biso   1.000  C
  H47      1.0000 0.90680  0.56400  0.00590  Biso   1.000  H
  C54      1.0000 0.97840  0.57340  0.16400  Biso   1.000  C
  H48      1.0000 0.93610  0.54470  0.14370  Biso   1.000  H
  H49      1.0000 0.09210  0.56970  0.18640  Biso   1.000  H
  H50      1.0000 0.90610  0.58460  0.21060  Biso   1.000  H
  C55      1.0000 0.09100  0.64380  0.10680  Biso   1.000  C
  H51      1.0000 0.08900  0.66390  0.05660  Biso   1.000  H
  H52      1.0000 0.05270  0.65960  0.15900  Biso   1.000  H
  H53      1.0000 0.20520  0.63320  0.11610  Biso   1.000  H
  O32      1.0000 0.16800  0.65930  0.33360  Biso   1.000  O
  C56      1.0000 0.92500  0.84100  0.11200  Biso   1.000  C
  H54      1.0000 0.80520  0.83940  0.12280  Biso   1.000  H
  H55      1.0000 0.98640  0.83070  0.16320  Biso   1.000  H
  H56      1.0000 0.95340  0.82230  0.06150  Biso   1.000  H
  Eu5      1.0000 0.56459  0.09283  0.29558  Biso   1.000  Eu
  O33      1.0000 0.74580  0.04010  0.35000  Biso   1.000  O
  O34      1.0000 0.99880  0.03010  0.29120  Biso   1.000  O
  O35      1.0000 0.60810  0.95800  0.61500  Biso   1.000  O
  O36      1.0000 0.76400  0.90310  0.66280  Biso   1.000  O
  O37      1.0000 0.84320  0.13080  0.31690  Biso   1.000  O
  O38      1.0000 0.01230  0.16950  0.23050  Biso   1.000  O
  O39      1.0000 0.56310  0.11750  0.44590  Biso   1.000  O
  N9       1.0000 0.07300  0.91760  0.43970  Biso   1.000  N
  N10      1.0000 0.52040  0.10560  0.58960  Biso   1.000  N
  C57      1.0000 0.88290  0.02000  0.34180  Biso   1.000  C
  C58      1.0000 0.90740  0.98050  0.39980  Biso   1.000  C
  C59      1.0000 0.04140  0.95160  0.38860  Biso   1.000  C
  H57      1.0000 0.11460  0.95680  0.34100  Biso   1.000  H
  C60      1.0000 0.97480  0.91260  0.50920  Biso   1.000  C
  H58      1.0000 0.00000  0.88940  0.54890  Biso   1.000  H
  C61      1.0000 0.83780  0.93940  0.52730  Biso   1.000  C
  C62      1.0000 0.80250  0.97320  0.47020  Biso   1.000  C
  H59      1.0000 0.70710  0.99140  0.47890  Biso   1.000  H
  C63      1.0000 0.73180  0.93380  0.60590  Biso   1.000  C
  C64      1.0000 0.90570  0.16800  0.29000  Biso   1.000  C
  C65      1.0000 0.85200  0.21040  0.33140  Biso   1.000  C
  C66      1.0000 0.75800  0.21230  0.40830  Biso   1.000  C
  H60      1.0000 0.72700  0.18510  0.43500  Biso   1.000  H
  C67      1.0000 0.56080  0.09410  0.51310  Biso   1.000  C
  H61      1.0000 0.59320  0.06400  0.50590  Biso   1.000  H
  C68      1.0000 0.52160  0.07340  0.66400  Biso   1.000  C
  H62      1.0000 0.56390  0.04470  0.64370  Biso   1.000  H
  H63      1.0000 0.40790  0.06970  0.68640  Biso   1.000  H
  H64      1.0000 0.59390  0.08460  0.71060  Biso   1.000  H
  C69      1.0000 0.40900  0.14380  0.60680  Biso   1.000  C
  H65      1.0000 0.41100  0.16390  0.55660  Biso   1.000  H
  H66      1.0000 0.44730  0.15960  0.65900  Biso   1.000  H
  H67      1.0000 0.29480  0.13320  0.61610  Biso   1.000  H
  O40      1.0000 0.33200  0.15930  0.83360  Biso   1.000  O
  C70      1.0000 0.57500  0.34100  0.61200  Biso   1.000  C
  H68      1.0000 0.69480  0.33940  0.62280  Biso   1.000  H
  H69      1.0000 0.51360  0.33070  0.66320  Biso   1.000  H
  H70      1.0000 0.54660  0.32230  0.56150  Biso   1.000  H
  Eu6      1.0000 0.93541  0.90717  0.79558  Biso   1.000  Eu
  O41      1.0000 0.75420  0.95990  0.85000  Biso   1.000  O
  O42      1.0000 0.50120  0.96990  0.79120  Biso   1.000  O
  O43      1.0000 0.89190  0.04200  0.11500  Biso   1.000  O
  O44      1.0000 0.73600  0.09690  0.16280  Biso   1.000  O
  O45      1.0000 0.65680  0.86920  0.81690  Biso   1.000  O
  O46      1.0000 0.48770  0.83050  0.73050  Biso   1.000  O
  O47      1.0000 0.93690  0.88250  0.94590  Biso   1.000  O
  N11      1.0000 0.42700  0.08240  0.93970  Biso   1.000  N
  N12      1.0000 0.97960  0.89440  0.08960  Biso   1.000  N
  C71      1.0000 0.61710  0.98000  0.84180  Biso   1.000  C
  C72      1.0000 0.59260  0.01950  0.89980  Biso   1.000  C
  C73      1.0000 0.45860  0.04840  0.88860  Biso   1.000  C
  H71      1.0000 0.38540  0.04320  0.84100  Biso   1.000  H
  C74      1.0000 0.52520  0.08740  0.00920  Biso   1.000  C
  H72      1.0000 0.50000  0.11060  0.04890  Biso   1.000  H
  C75      1.0000 0.66220  0.06060  0.02730  Biso   1.000  C
  C76      1.0000 0.69750  0.02680  0.97020  Biso   1.000  C
  H73      1.0000 0.79290  0.00860  0.97890  Biso   1.000  H
  C77      1.0000 0.76820  0.06620  0.10590  Biso   1.000  C
  C78      1.0000 0.59430  0.83200  0.79000  Biso   1.000  C
  C79      1.0000 0.64800  0.78960  0.83140  Biso   1.000  C
  C80      1.0000 0.74200  0.78770  0.90830  Biso   1.000  C
  H74      1.0000 0.77300  0.81490  0.93500  Biso   1.000  H
  C81      1.0000 0.93920  0.90590  0.01310  Biso   1.000  C
  H75      1.0000 0.90680  0.93600  0.00590  Biso   1.000  H
  C82      1.0000 0.97840  0.92660  0.16400  Biso   1.000  C
  H76      1.0000 0.93610  0.95530  0.14370  Biso   1.000  H
  H77      1.0000 0.09210  0.93030  0.18640  Biso   1.000  H
  H78      1.0000 0.90610  0.91540  0.21060  Biso   1.000  H
  C83      1.0000 0.09100  0.85620  0.10680  Biso   1.000  C
  H79      1.0000 0.08900  0.83610  0.05660  Biso   1.000  H
  H80      1.0000 0.05270  0.84040  0.15900  Biso   1.000  H
  H81      1.0000 0.20520  0.86680  0.11610  Biso   1.000  H
  O48      1.0000 0.16800  0.84070  0.33360  Biso   1.000  O
  C84      1.0000 0.92500  0.65900  0.11200  Biso   1.000  C
  H82      1.0000 0.80520  0.66060  0.12280  Biso   1.000  H
  H83      1.0000 0.98640  0.66930  0.16320  Biso   1.000  H
  H84      1.0000 0.95340  0.67770  0.06150  Biso   1.000  H
  Eu7      1.0000 0.43541  0.59283  0.70442  Biso   1.000  Eu
  O49      1.0000 0.25420  0.54010  0.65000  Biso   1.000  O
  O50      1.0000 0.00120  0.53010  0.70880  Biso   1.000  O
  O51      1.0000 0.39190  0.45800  0.38500  Biso   1.000  O
  O52      1.0000 0.23600  0.40310  0.33720  Biso   1.000  O
  O53      1.0000 0.15680  0.63080  0.68310  Biso   1.000  O
  O54      1.0000 0.98770  0.66950  0.76950  Biso   1.000  O
  O55      1.0000 0.43690  0.61750  0.55410  Biso   1.000  O
  N13      1.0000 0.92700  0.41760  0.56030  Biso   1.000  N
  N14      1.0000 0.47960  0.60560  0.41040  Biso   1.000  N
  C85      1.0000 0.11710  0.52000  0.65820  Biso   1.000  C
  C86      1.0000 0.09260  0.48050  0.60020  Biso   1.000  C
  C87      1.0000 0.95860  0.45160  0.61140  Biso   1.000  C
  H85      1.0000 0.88540  0.45680  0.65900  Biso   1.000  H
  C88      1.0000 0.02520  0.41260  0.49080  Biso   1.000  C
  H86      1.0000 0.00000  0.38940  0.45110  Biso   1.000  H
  C89      1.0000 0.16220  0.43940  0.47270  Biso   1.000  C
  C90      1.0000 0.19750  0.47320  0.52980  Biso   1.000  C
  H87      1.0000 0.29290  0.49140  0.52110  Biso   1.000  H
  C91      1.0000 0.26820  0.43380  0.39410  Biso   1.000  C
  C92      1.0000 0.09430  0.66800  0.71000  Biso   1.000  C
  C93      1.0000 0.14800  0.71040  0.66860  Biso   1.000  C
  C94      1.0000 0.24200  0.71230  0.59170  Biso   1.000  C
  H88      1.0000 0.27300  0.68510  0.56500  Biso   1.000  H
  C95      1.0000 0.43920  0.59410  0.48690  Biso   1.000  C
  H89      1.0000 0.40680  0.56400  0.49410  Biso   1.000  H
  C96      1.0000 0.47840  0.57340  0.33600  Biso   1.000  C
  H90      1.0000 0.43610  0.54470  0.35630  Biso   1.000  H
  H91      1.0000 0.59210  0.56970  0.31360  Biso   1.000  H
  H92      1.0000 0.40610  0.58460  0.28940  Biso   1.000  H
  C97      1.0000 0.59100  0.64380  0.39320  Biso   1.000  C
  H93      1.0000 0.58900  0.66390  0.44340  Biso   1.000  H
  H94      1.0000 0.55270  0.65960  0.34100  Biso   1.000  H
  H95      1.0000 0.70520  0.63320  0.38390  Biso   1.000  H
  O56      1.0000 0.66800  0.65930  0.16640  Biso   1.000  O
  C98      1.0000 0.42500  0.84100  0.38800  Biso   1.000  C
  H96      1.0000 0.30520  0.83940  0.37720  Biso   1.000  H
  H97      1.0000 0.48640  0.83070  0.33680  Biso   1.000  H
  H98      1.0000 0.45340  0.82230  0.43850  Biso   1.000  H
  Eu8      1.0000 0.06459  0.40717  0.20442  Biso   1.000  Eu
  O57      1.0000 0.24580  0.45990  0.15000  Biso   1.000  O
  O58      1.0000 0.49880  0.46990  0.20880  Biso   1.000  O
  O59      1.0000 0.10810  0.54200  0.88500  Biso   1.000  O
  O60      1.0000 0.26400  0.59690  0.83720  Biso   1.000  O
  O61      1.0000 0.34320  0.36920  0.18310  Biso   1.000  O
  O62      1.0000 0.51230  0.33050  0.26950  Biso   1.000  O
  O63      1.0000 0.06310  0.38250  0.05410  Biso   1.000  O
  N15      1.0000 0.57300  0.58240  0.06030  Biso   1.000  N
  N16      1.0000 0.02040  0.39440  0.91040  Biso   1.000  N
  C99      1.0000 0.38290  0.48000  0.15820  Biso   1.000  C
  C100     1.0000 0.40740  0.51950  0.10020  Biso   1.000  C
  C101     1.0000 0.54140  0.54840  0.11140  Biso   1.000  C
  H99      1.0000 0.61460  0.54320  0.15900  Biso   1.000  H
  C102     1.0000 0.47480  0.58740  0.99080  Biso   1.000  C
  H100     1.0000 0.50000  0.61060  0.95110  Biso   1.000  H
  C103     1.0000 0.33780  0.56060  0.97270  Biso   1.000  C
  C104     1.0000 0.30250  0.52680  0.02980  Biso   1.000  C
  H101     1.0000 0.20710  0.50860  0.02110  Biso   1.000  H
  C105     1.0000 0.23180  0.56620  0.89410  Biso   1.000  C
  C106     1.0000 0.40570  0.33200  0.21000  Biso   1.000  C
  C107     1.0000 0.35200  0.28960  0.16860  Biso   1.000  C
  C108     1.0000 0.25800  0.28770  0.09170  Biso   1.000  C
  H102     1.0000 0.22700  0.31490  0.06500  Biso   1.000  H
  C109     1.0000 0.06080  0.40590  0.98690  Biso   1.000  C
  H103     1.0000 0.09320  0.43600  0.99410  Biso   1.000  H
  C110     1.0000 0.02160  0.42660  0.83600  Biso   1.000  C
  H104     1.0000 0.06390  0.45530  0.85630  Biso   1.000  H
  H105     1.0000 0.90790  0.43030  0.81360  Biso   1.000  H
  H106     1.0000 0.09390  0.41540  0.78940  Biso   1.000  H
  C111     1.0000 0.90900  0.35620  0.89320  Biso   1.000  C
  H107     1.0000 0.91100  0.33610  0.94340  Biso   1.000  H
  H108     1.0000 0.94730  0.34040  0.84100  Biso   1.000  H
  H109     1.0000 0.79480  0.36680  0.88390  Biso   1.000  H
  O64      1.0000 0.83200  0.34070  0.66640  Biso   1.000  O
  C112     1.0000 0.07500  0.15900  0.88800  Biso   1.000  C
  H110     1.0000 0.19480  0.16060  0.87720  Biso   1.000  H
  H111     1.0000 0.01360  0.16930  0.83680  Biso   1.000  H
  H112     1.0000 0.04660  0.17770  0.93850  Biso   1.000  H
  N17      1.0000 0.29150  0.75000  0.55310  Biso   1.000  N
  C113     1.0000 0.09970  0.75000  0.70460  Biso   1.000  C
  H113     1.0000 0.03180  0.75000  0.75540  Biso   1.000  H
  N18      1.0000 0.20850  0.25000  0.05310  Biso   1.000  N
  C114     1.0000 0.40030  0.25000  0.20460  Biso   1.000  C
  H114     1.0000 0.46820  0.25000  0.25540  Biso   1.000  H
  N19      1.0000 0.70850  0.25000  0.44690  Biso   1.000  N
  C115     1.0000 0.90030  0.25000  0.29540  Biso   1.000  C
  H115     1.0000 0.96820  0.25000  0.24460  Biso   1.000  H
  N20      1.0000 0.79150  0.75000  0.94690  Biso   1.000  N
  C116     1.0000 0.59970  0.75000  0.79540  Biso   1.000  C
  H116     1.0000 0.53180  0.75000  0.74460  Biso   1.000  H
