data_image0
_cell_length_a       14.682
_cell_length_b       24.569
_cell_length_c       22.399
_cell_angle_alpha    90
_cell_angle_beta     90
_cell_angle_gamma    90

_symmetry_space_group_name_H-M    P 1
_symmetry_int_tables_number       1

loop_
  _symmetry_equiv_pos_as_xyz
  'x, y, z'

loop_
  _atom_site_label
  _atom_site_occupancy
  _atom_site_fract_x
  _atom_site_fract_y
  _atom_site_fract_z
  _atom_site_thermal_displace_type
  _atom_site_B_iso_or_equiv
  _atom_site_type_symbol
  Cu1      1.0000 0.59238  0.59124  0.85203  Biso   1.000  Cu
  Cu2      1.0000 0.60520  0.52206  0.98199  Biso   1.000  Cu
  Cu3      1.0000 0.59300  0.65928  0.98320  Biso   1.000  Cu
  Cu4      1.0000 0.40762  0.90876  0.85203  Biso   1.000  Cu
  Cu5      1.0000 0.39480  0.97794  0.98199  Biso   1.000  Cu
  Cu6      1.0000 0.40700  0.84072  0.98320  Biso   1.000  Cu
  Cu7      1.0000 0.09238  0.90876  0.64797  Biso   1.000  Cu
  Cu8      1.0000 0.10520  0.97794  0.51801  Biso   1.000  Cu
  Cu9      1.0000 0.09300  0.84072  0.51680  Biso   1.000  Cu
  Cu10     1.0000 0.90762  0.59124  0.64797  Biso   1.000  Cu
  Cu11     1.0000 0.89480  0.52206  0.51801  Biso   1.000  Cu
  Cu12     1.0000 0.90700  0.65928  0.51680  Biso   1.000  Cu
  Cu13     1.0000 0.40762  0.40876  0.14797  Biso   1.000  Cu
  Cu14     1.0000 0.39480  0.47794  0.01801  Biso   1.000  Cu
  Cu15     1.0000 0.40700  0.34072  0.01680  Biso   1.000  Cu
  Cu16     1.0000 0.59238  0.09124  0.14797  Biso   1.000  Cu
  Cu17     1.0000 0.60520  0.02206  0.01801  Biso   1.000  Cu
  Cu18     1.0000 0.59300  0.15928  0.01680  Biso   1.000  Cu
  Cu19     1.0000 0.90762  0.09124  0.35203  Biso   1.000  Cu
  Cu20     1.0000 0.89480  0.02206  0.48199  Biso   1.000  Cu
  Cu21     1.0000 0.90700  0.15928  0.48320  Biso   1.000  Cu
  Cu22     1.0000 0.09238  0.40876  0.35203  Biso   1.000  Cu
  Cu23     1.0000 0.10520  0.47794  0.48199  Biso   1.000  Cu
  Cu24     1.0000 0.09300  0.34072  0.48320  Biso   1.000  Cu
  H1       1.0000 0.61620  0.77970  0.92150  Biso   1.000  H
  H2       1.0000 0.61670  0.48330  0.76920  Biso   1.000  H
  H3       1.0000 0.61460  0.51140  0.12630  Biso   1.000  H
  H4       1.0000 0.61820  0.69760  0.77110  Biso   1.000  H
  H5       1.0000 0.61240  0.67000  0.12550  Biso   1.000  H
  H6       1.0000 0.61850  0.40150  0.91910  Biso   1.000  H
  H7       1.0000 0.60160  0.37160  0.76370  Biso   1.000  H
  H8       1.0000 0.63060  0.34220  0.82320  Biso   1.000  H
  H9       1.0000 0.78250  0.37520  0.80770  Biso   1.000  H
  H10      1.0000 0.60400  0.62210  0.23240  Biso   1.000  H
  H11      1.0000 0.60020  0.55820  0.23120  Biso   1.000  H
  H12      1.0000 0.76010  0.58500  0.19750  Biso   1.000  H
  H13      1.0000 0.78600  0.80690  0.80590  Biso   1.000  H
  H14      1.0000 0.60200  0.81140  0.76780  Biso   1.000  H
  H15      1.0000 0.63580  0.83980  0.82660  Biso   1.000  H
  H16      1.0000 0.38380  0.72030  0.92150  Biso   1.000  H
  H17      1.0000 0.38330  0.01670  0.76920  Biso   1.000  H
  H18      1.0000 0.38540  0.98860  0.12630  Biso   1.000  H
  H19      1.0000 0.38180  0.80240  0.77110  Biso   1.000  H
  H20      1.0000 0.38760  0.83000  0.12550  Biso   1.000  H
  H21      1.0000 0.38150  0.09850  0.91910  Biso   1.000  H
  H22      1.0000 0.39840  0.12840  0.76370  Biso   1.000  H
  H23      1.0000 0.36940  0.15780  0.82320  Biso   1.000  H
  H24      1.0000 0.21750  0.12480  0.80770  Biso   1.000  H
  H25      1.0000 0.39600  0.87790  0.23240  Biso   1.000  H
  H26      1.0000 0.39980  0.94180  0.23120  Biso   1.000  H
  H27      1.0000 0.23990  0.91500  0.19750  Biso   1.000  H
  H28      1.0000 0.21400  0.69310  0.80590  Biso   1.000  H
  H29      1.0000 0.39800  0.68860  0.76780  Biso   1.000  H
  H30      1.0000 0.36420  0.66020  0.82660  Biso   1.000  H
  H31      1.0000 0.11620  0.72030  0.57850  Biso   1.000  H
  H32      1.0000 0.11670  0.01670  0.73080  Biso   1.000  H
  H33      1.0000 0.11460  0.98860  0.37370  Biso   1.000  H
  H34      1.0000 0.11820  0.80240  0.72890  Biso   1.000  H
  H35      1.0000 0.11240  0.83000  0.37450  Biso   1.000  H
  H36      1.0000 0.11850  0.09850  0.58090  Biso   1.000  H
  H37      1.0000 0.10160  0.12840  0.73630  Biso   1.000  H
  H38      1.0000 0.13060  0.15780  0.67680  Biso   1.000  H
  H39      1.0000 0.28250  0.12480  0.69230  Biso   1.000  H
  H40      1.0000 0.10400  0.87790  0.26760  Biso   1.000  H
  H41      1.0000 0.10020  0.94180  0.26880  Biso   1.000  H
  H42      1.0000 0.26010  0.91500  0.30250  Biso   1.000  H
  H43      1.0000 0.28600  0.69310  0.69410  Biso   1.000  H
  H44      1.0000 0.10200  0.68860  0.73220  Biso   1.000  H
  H45      1.0000 0.13580  0.66020  0.67340  Biso   1.000  H
  H46      1.0000 0.88380  0.77970  0.57850  Biso   1.000  H
  H47      1.0000 0.88330  0.48330  0.73080  Biso   1.000  H
  H48      1.0000 0.88540  0.51140  0.37370  Biso   1.000  H
  H49      1.0000 0.88180  0.69760  0.72890  Biso   1.000  H
  H50      1.0000 0.88760  0.67000  0.37450  Biso   1.000  H
  H51      1.0000 0.88150  0.40150  0.58090  Biso   1.000  H
  H52      1.0000 0.89840  0.37160  0.73630  Biso   1.000  H
  H53      1.0000 0.86940  0.34220  0.67680  Biso   1.000  H
  H54      1.0000 0.71750  0.37520  0.69230  Biso   1.000  H
  H55      1.0000 0.89600  0.62210  0.26760  Biso   1.000  H
  H56      1.0000 0.89980  0.55820  0.26880  Biso   1.000  H
  H57      1.0000 0.73990  0.58500  0.30250  Biso   1.000  H
  H58      1.0000 0.71400  0.80690  0.69410  Biso   1.000  H
  H59      1.0000 0.89800  0.81140  0.73220  Biso   1.000  H
  H60      1.0000 0.86420  0.83980  0.67340  Biso   1.000  H
  H61      1.0000 0.38380  0.22030  0.07850  Biso   1.000  H
  H62      1.0000 0.38330  0.51670  0.23080  Biso   1.000  H
  H63      1.0000 0.38540  0.48860  0.87370  Biso   1.000  H
  H64      1.0000 0.38180  0.30240  0.22890  Biso   1.000  H
  H65      1.0000 0.38760  0.33000  0.87450  Biso   1.000  H
  H66      1.0000 0.38150  0.59850  0.08090  Biso   1.000  H
  H67      1.0000 0.39840  0.62840  0.23630  Biso   1.000  H
  H68      1.0000 0.36940  0.65780  0.17680  Biso   1.000  H
  H69      1.0000 0.21750  0.62480  0.19230  Biso   1.000  H
  H70      1.0000 0.39600  0.37790  0.76760  Biso   1.000  H
  H71      1.0000 0.39980  0.44180  0.76880  Biso   1.000  H
  H72      1.0000 0.23990  0.41500  0.80250  Biso   1.000  H
  H73      1.0000 0.21400  0.19310  0.19410  Biso   1.000  H
  H74      1.0000 0.39800  0.18860  0.23220  Biso   1.000  H
  H75      1.0000 0.36420  0.16020  0.17340  Biso   1.000  H
  H76      1.0000 0.61620  0.27970  0.07850  Biso   1.000  H
  H77      1.0000 0.61670  0.98330  0.23080  Biso   1.000  H
  H78      1.0000 0.61460  0.01140  0.87370  Biso   1.000  H
  H79      1.0000 0.61820  0.19760  0.22890  Biso   1.000  H
  H80      1.0000 0.61240  0.17000  0.87450  Biso   1.000  H
  H81      1.0000 0.61850  0.90150  0.08090  Biso   1.000  H
  H82      1.0000 0.60160  0.87160  0.23630  Biso   1.000  H
  H83      1.0000 0.63060  0.84220  0.17680  Biso   1.000  H
  H84      1.0000 0.78250  0.87520  0.19230  Biso   1.000  H
  H85      1.0000 0.60400  0.12210  0.76760  Biso   1.000  H
  H86      1.0000 0.60020  0.05820  0.76880  Biso   1.000  H
  H87      1.0000 0.76010  0.08500  0.80250  Biso   1.000  H
  H88      1.0000 0.78600  0.30690  0.19410  Biso   1.000  H
  H89      1.0000 0.60200  0.31140  0.23220  Biso   1.000  H
  H90      1.0000 0.63580  0.33980  0.17340  Biso   1.000  H
  H91      1.0000 0.88380  0.27970  0.42150  Biso   1.000  H
  H92      1.0000 0.88330  0.98330  0.26920  Biso   1.000  H
  H93      1.0000 0.88540  0.01140  0.62630  Biso   1.000  H
  H94      1.0000 0.88180  0.19760  0.27110  Biso   1.000  H
  H95      1.0000 0.88760  0.17000  0.62550  Biso   1.000  H
  H96      1.0000 0.88150  0.90150  0.41910  Biso   1.000  H
  H97      1.0000 0.89840  0.87160  0.26370  Biso   1.000  H
  H98      1.0000 0.86940  0.84220  0.32320  Biso   1.000  H
  H99      1.0000 0.71750  0.87520  0.30770  Biso   1.000  H
  H100     1.0000 0.89600  0.12210  0.73240  Biso   1.000  H
  H101     1.0000 0.89980  0.05820  0.73120  Biso   1.000  H
  H102     1.0000 0.73990  0.08500  0.69750  Biso   1.000  H
  H103     1.0000 0.71400  0.30690  0.30590  Biso   1.000  H
  H104     1.0000 0.89800  0.31140  0.26780  Biso   1.000  H
  H105     1.0000 0.86420  0.33980  0.32660  Biso   1.000  H
  H106     1.0000 0.11620  0.22030  0.42150  Biso   1.000  H
  H107     1.0000 0.11670  0.51670  0.26920  Biso   1.000  H
  H108     1.0000 0.11460  0.48860  0.62630  Biso   1.000  H
  H109     1.0000 0.11820  0.30240  0.27110  Biso   1.000  H
  H110     1.0000 0.11240  0.33000  0.62550  Biso   1.000  H
  H111     1.0000 0.11850  0.59850  0.41910  Biso   1.000  H
  H112     1.0000 0.10160  0.62840  0.26370  Biso   1.000  H
  H113     1.0000 0.13060  0.65780  0.32320  Biso   1.000  H
  H114     1.0000 0.28250  0.62480  0.30770  Biso   1.000  H
  H115     1.0000 0.10400  0.37790  0.73240  Biso   1.000  H
  H116     1.0000 0.10020  0.44180  0.73120  Biso   1.000  H
  H117     1.0000 0.26010  0.41500  0.69750  Biso   1.000  H
  H118     1.0000 0.28600  0.19310  0.30590  Biso   1.000  H
  H119     1.0000 0.10200  0.18860  0.26780  Biso   1.000  H
  H120     1.0000 0.13580  0.16020  0.32660  Biso   1.000  H
  C1       1.0000 0.61440  0.75150  0.89370  Biso   1.000  C
  C2       1.0000 0.61430  0.47490  0.80960  Biso   1.000  C
  C3       1.0000 0.61620  0.54740  0.11330  Biso   1.000  C
  C4       1.0000 0.61520  0.70620  0.81150  Biso   1.000  C
  C5       1.0000 0.61460  0.63380  0.11330  Biso   1.000  C
  C6       1.0000 0.61540  0.42980  0.89160  Biso   1.000  C
  C7       1.0000 0.64150  0.37380  0.79820  Biso   1.000  C
  C8       1.0000 0.73730  0.37460  0.77860  Biso   1.000  C
  C9       1.0000 0.63190  0.58970  0.21560  Biso   1.000  C
  C10      1.0000 0.72670  0.58750  0.23260  Biso   1.000  C
  C11      1.0000 0.73900  0.80750  0.77800  Biso   1.000  C
  C12      1.0000 0.64430  0.80840  0.80090  Biso   1.000  C
  C13      1.0000 0.38560  0.74850  0.89370  Biso   1.000  C
  C14      1.0000 0.38570  0.02510  0.80960  Biso   1.000  C
  C15      1.0000 0.38380  0.95260  0.11330  Biso   1.000  C
  C16      1.0000 0.38480  0.79380  0.81150  Biso   1.000  C
  C17      1.0000 0.38540  0.86620  0.11330  Biso   1.000  C
  C18      1.0000 0.38460  0.07020  0.89160  Biso   1.000  C
  C19      1.0000 0.35850  0.12620  0.79820  Biso   1.000  C
  C20      1.0000 0.26270  0.12540  0.77860  Biso   1.000  C
  C21      1.0000 0.36810  0.91030  0.21560  Biso   1.000  C
  C22      1.0000 0.27330  0.91250  0.23260  Biso   1.000  C
  C23      1.0000 0.26100  0.69250  0.77800  Biso   1.000  C
  C24      1.0000 0.35570  0.69160  0.80090  Biso   1.000  C
  C25      1.0000 0.11440  0.74850  0.60630  Biso   1.000  C
  C26      1.0000 0.11430  0.02510  0.69040  Biso   1.000  C
  C27      1.0000 0.11620  0.95260  0.38670  Biso   1.000  C
  C28      1.0000 0.11520  0.79380  0.68850  Biso   1.000  C
  C29      1.0000 0.11460  0.86620  0.38670  Biso   1.000  C
  C30      1.0000 0.11540  0.07020  0.60840  Biso   1.000  C
  C31      1.0000 0.14150  0.12620  0.70180  Biso   1.000  C
  C32      1.0000 0.23730  0.12540  0.72140  Biso   1.000  C
  C33      1.0000 0.13190  0.91030  0.28440  Biso   1.000  C
  C34      1.0000 0.22670  0.91250  0.26740  Biso   1.000  C
  C35      1.0000 0.23900  0.69250  0.72200  Biso   1.000  C
  C36      1.0000 0.14430  0.69160  0.69910  Biso   1.000  C
  C37      1.0000 0.88560  0.75150  0.60630  Biso   1.000  C
  C38      1.0000 0.88570  0.47490  0.69040  Biso   1.000  C
  C39      1.0000 0.88380  0.54740  0.38670  Biso   1.000  C
  C40      1.0000 0.88480  0.70620  0.68850  Biso   1.000  C
  C41      1.0000 0.88540  0.63380  0.38670  Biso   1.000  C
  C42      1.0000 0.88460  0.42980  0.60840  Biso   1.000  C
  C43      1.0000 0.85850  0.37380  0.70180  Biso   1.000  C
  C44      1.0000 0.76270  0.37460  0.72140  Biso   1.000  C
  C45      1.0000 0.86810  0.58970  0.28440  Biso   1.000  C
  C46      1.0000 0.77330  0.58750  0.26740  Biso   1.000  C
  C47      1.0000 0.76100  0.80750  0.72200  Biso   1.000  C
  C48      1.0000 0.85570  0.80840  0.69910  Biso   1.000  C
  C49      1.0000 0.38560  0.24850  0.10630  Biso   1.000  C
  C50      1.0000 0.38570  0.52510  0.19040  Biso   1.000  C
  C51      1.0000 0.38380  0.45260  0.88670  Biso   1.000  C
  C52      1.0000 0.38480  0.29380  0.18850  Biso   1.000  C
  C53      1.0000 0.38540  0.36620  0.88670  Biso   1.000  C
  C54      1.0000 0.38460  0.57020  0.10840  Biso   1.000  C
  C55      1.0000 0.35850  0.62620  0.20180  Biso   1.000  C
  C56      1.0000 0.26270  0.62540  0.22140  Biso   1.000  C
  C57      1.0000 0.36810  0.41030  0.78440  Biso   1.000  C
  C58      1.0000 0.27330  0.41250  0.76740  Biso   1.000  C
  C59      1.0000 0.26100  0.19250  0.22200  Biso   1.000  C
  C60      1.0000 0.35570  0.19160  0.19910  Biso   1.000  C
  C61      1.0000 0.61440  0.25150  0.10630  Biso   1.000  C
  C62      1.0000 0.61430  0.97490  0.19040  Biso   1.000  C
  C63      1.0000 0.61620  0.04740  0.88670  Biso   1.000  C
  C64      1.0000 0.61520  0.20620  0.18850  Biso   1.000  C
  C65      1.0000 0.61460  0.13380  0.88670  Biso   1.000  C
  C66      1.0000 0.61540  0.92980  0.10840  Biso   1.000  C
  C67      1.0000 0.64150  0.87380  0.20180  Biso   1.000  C
  C68      1.0000 0.73730  0.87460  0.22140  Biso   1.000  C
  C69      1.0000 0.63190  0.08970  0.78440  Biso   1.000  C
  C70      1.0000 0.72670  0.08750  0.76740  Biso   1.000  C
  C71      1.0000 0.73900  0.30750  0.22200  Biso   1.000  C
  C72      1.0000 0.64430  0.30840  0.19910  Biso   1.000  C
  C73      1.0000 0.88560  0.25150  0.39370  Biso   1.000  C
  C74      1.0000 0.88570  0.97490  0.30960  Biso   1.000  C
  C75      1.0000 0.88380  0.04740  0.61330  Biso   1.000  C
  C76      1.0000 0.88480  0.20620  0.31150  Biso   1.000  C
  C77      1.0000 0.88540  0.13380  0.61330  Biso   1.000  C
  C78      1.0000 0.88460  0.92980  0.39160  Biso   1.000  C
  C79      1.0000 0.85850  0.87380  0.29820  Biso   1.000  C
  C80      1.0000 0.76270  0.87460  0.27860  Biso   1.000  C
  C81      1.0000 0.86810  0.08970  0.71560  Biso   1.000  C
  C82      1.0000 0.77330  0.08750  0.73260  Biso   1.000  C
  C83      1.0000 0.76100  0.30750  0.27800  Biso   1.000  C
  C84      1.0000 0.85570  0.30840  0.30090  Biso   1.000  C
  C85      1.0000 0.11440  0.24850  0.39370  Biso   1.000  C
  C86      1.0000 0.11430  0.52510  0.30960  Biso   1.000  C
  C87      1.0000 0.11620  0.45260  0.61330  Biso   1.000  C
  C88      1.0000 0.11520  0.29380  0.31150  Biso   1.000  C
  C89      1.0000 0.11460  0.36620  0.61330  Biso   1.000  C
  C90      1.0000 0.11540  0.57020  0.39160  Biso   1.000  C
  C91      1.0000 0.14150  0.62620  0.29820  Biso   1.000  C
  C92      1.0000 0.23730  0.62540  0.27860  Biso   1.000  C
  C93      1.0000 0.13190  0.41030  0.71560  Biso   1.000  C
  C94      1.0000 0.22670  0.41250  0.73260  Biso   1.000  C
  C95      1.0000 0.23900  0.19250  0.27800  Biso   1.000  C
  C96      1.0000 0.14430  0.19160  0.30090  Biso   1.000  C
  S1       1.0000 0.40686  0.59090  0.94439  Biso   1.000  S
  S2       1.0000 0.59314  0.90910  0.94439  Biso   1.000  S
  S3       1.0000 0.90686  0.90910  0.55561  Biso   1.000  S
  S4       1.0000 0.09314  0.59090  0.55561  Biso   1.000  S
  S5       1.0000 0.59314  0.40910  0.05561  Biso   1.000  S
  S6       1.0000 0.40686  0.09090  0.05561  Biso   1.000  S
  S7       1.0000 0.09314  0.09090  0.44439  Biso   1.000  S
  S8       1.0000 0.90686  0.40910  0.44439  Biso   1.000  S
  S9       1.0000 0.50000  0.75000  0.06351  Biso   1.000  S
  S10      1.0000 0.00000  0.75000  0.43649  Biso   1.000  S
  S11      1.0000 0.50000  0.25000  0.93649  Biso   1.000  S
  S12      1.0000 0.00000  0.25000  0.56351  Biso   1.000  S
  N1       1.0000 0.61190  0.56220  0.05760  Biso   1.000  N
  N2       1.0000 0.60070  0.69930  0.90660  Biso   1.000  N
  N3       1.0000 0.60320  0.48260  0.90500  Biso   1.000  N
  N4       1.0000 0.60960  0.61740  0.05920  Biso   1.000  N
  N5       1.0000 0.60140  0.67250  0.85320  Biso   1.000  N
  N6       1.0000 0.62510  0.75740  0.83540  Biso   1.000  N
  N7       1.0000 0.60260  0.51050  0.85210  Biso   1.000  N
  N8       1.0000 0.62260  0.42450  0.83220  Biso   1.000  N
  N9       1.0000 0.62350  0.59090  0.14980  Biso   1.000  N
  N10      1.0000 0.38810  0.93780  0.05760  Biso   1.000  N
  N11      1.0000 0.39930  0.80070  0.90660  Biso   1.000  N
  N12      1.0000 0.39680  0.01740  0.90500  Biso   1.000  N
  N13      1.0000 0.39040  0.88260  0.05920  Biso   1.000  N
  N14      1.0000 0.39860  0.82750  0.85320  Biso   1.000  N
  N15      1.0000 0.37490  0.74260  0.83540  Biso   1.000  N
  N16      1.0000 0.39740  0.98950  0.85210  Biso   1.000  N
  N17      1.0000 0.37740  0.07550  0.83220  Biso   1.000  N
  N18      1.0000 0.37650  0.90910  0.14980  Biso   1.000  N
  N19      1.0000 0.11190  0.93780  0.44240  Biso   1.000  N
  N20      1.0000 0.10070  0.80070  0.59340  Biso   1.000  N
  N21      1.0000 0.10320  0.01740  0.59500  Biso   1.000  N
  N22      1.0000 0.10960  0.88260  0.44080  Biso   1.000  N
  N23      1.0000 0.10140  0.82750  0.64680  Biso   1.000  N
  N24      1.0000 0.12510  0.74260  0.66460  Biso   1.000  N
  N25      1.0000 0.10260  0.98950  0.64790  Biso   1.000  N
  N26      1.0000 0.12260  0.07550  0.66780  Biso   1.000  N
  N27      1.0000 0.12350  0.90910  0.35020  Biso   1.000  N
  N28      1.0000 0.88810  0.56220  0.44240  Biso   1.000  N
  N29      1.0000 0.89930  0.69930  0.59340  Biso   1.000  N
  N30      1.0000 0.89680  0.48260  0.59500  Biso   1.000  N
  N31      1.0000 0.89040  0.61740  0.44080  Biso   1.000  N
  N32      1.0000 0.89860  0.67250  0.64680  Biso   1.000  N
  N33      1.0000 0.87490  0.75740  0.66460  Biso   1.000  N
  N34      1.0000 0.89740  0.51050  0.64790  Biso   1.000  N
  N35      1.0000 0.87740  0.42450  0.66780  Biso   1.000  N
  N36      1.0000 0.87650  0.59090  0.35020  Biso   1.000  N
  N37      1.0000 0.38810  0.43780  0.94240  Biso   1.000  N
  N38      1.0000 0.39930  0.30070  0.09340  Biso   1.000  N
  N39      1.0000 0.39680  0.51740  0.09500  Biso   1.000  N
  N40      1.0000 0.39040  0.38260  0.94080  Biso   1.000  N
  N41      1.0000 0.39860  0.32750  0.14680  Biso   1.000  N
  N42      1.0000 0.37490  0.24260  0.16460  Biso   1.000  N
  N43      1.0000 0.39740  0.48950  0.14790  Biso   1.000  N
  N44      1.0000 0.37740  0.57550  0.16780  Biso   1.000  N
  N45      1.0000 0.37650  0.40910  0.85020  Biso   1.000  N
  N46      1.0000 0.61190  0.06220  0.94240  Biso   1.000  N
  N47      1.0000 0.60070  0.19930  0.09340  Biso   1.000  N
  N48      1.0000 0.60320  0.98260  0.09500  Biso   1.000  N
  N49      1.0000 0.60960  0.11740  0.94080  Biso   1.000  N
  N50      1.0000 0.60140  0.17250  0.14680  Biso   1.000  N
  N51      1.0000 0.62510  0.25740  0.16460  Biso   1.000  N
  N52      1.0000 0.60260  0.01050  0.14790  Biso   1.000  N
  N53      1.0000 0.62260  0.92450  0.16780  Biso   1.000  N
  N54      1.0000 0.62350  0.09090  0.85020  Biso   1.000  N
  N55      1.0000 0.88810  0.06220  0.55760  Biso   1.000  N
  N56      1.0000 0.89930  0.19930  0.40660  Biso   1.000  N
  N57      1.0000 0.89680  0.98260  0.40500  Biso   1.000  N
  N58      1.0000 0.89040  0.11740  0.55920  Biso   1.000  N
  N59      1.0000 0.89860  0.17250  0.35320  Biso   1.000  N
  N60      1.0000 0.87490  0.25740  0.33540  Biso   1.000  N
  N61      1.0000 0.89740  0.01050  0.35210  Biso   1.000  N
  N62      1.0000 0.87740  0.92450  0.33220  Biso   1.000  N
  N63      1.0000 0.87650  0.09090  0.64980  Biso   1.000  N
  N64      1.0000 0.11190  0.43780  0.55760  Biso   1.000  N
  N65      1.0000 0.10070  0.30070  0.40660  Biso   1.000  N
  N66      1.0000 0.10320  0.51740  0.40500  Biso   1.000  N
  N67      1.0000 0.10960  0.38260  0.55920  Biso   1.000  N
  N68      1.0000 0.10140  0.32750  0.35320  Biso   1.000  N
  N69      1.0000 0.12510  0.24260  0.33540  Biso   1.000  N
  N70      1.0000 0.10260  0.48950  0.35210  Biso   1.000  N
  N71      1.0000 0.12260  0.57550  0.33220  Biso   1.000  N
  N72      1.0000 0.12350  0.40910  0.64980  Biso   1.000  N
  O1       1.0000 0.44220  0.54290  0.97650  Biso   1.000  O
  O2       1.0000 0.44350  0.63970  0.97370  Biso   1.000  O
  O3       1.0000 0.43970  0.58730  0.88360  Biso   1.000  O
  O4       1.0000 0.30890  0.59060  0.94780  Biso   1.000  O
  O5       1.0000 0.63050  0.59130  0.93800  Biso   1.000  O
  O6       1.0000 0.57120  0.72730  0.02470  Biso   1.000  O
  O7       1.0000 0.54150  0.79350  0.09930  Biso   1.000  O
  O8       1.0000 0.54140  0.59230  0.77090  Biso   1.000  O
  O9       1.0000 0.55780  0.95710  0.97650  Biso   1.000  O
  O10      1.0000 0.55650  0.86030  0.97370  Biso   1.000  O
  O11      1.0000 0.56030  0.91270  0.88360  Biso   1.000  O
  O12      1.0000 0.69110  0.90940  0.94780  Biso   1.000  O
  O13      1.0000 0.36950  0.90870  0.93800  Biso   1.000  O
  O14      1.0000 0.42880  0.77270  0.02470  Biso   1.000  O
  O15      1.0000 0.45850  0.70650  0.09930  Biso   1.000  O
  O16      1.0000 0.45860  0.90770  0.77090  Biso   1.000  O
  O17      1.0000 0.94220  0.95710  0.52350  Biso   1.000  O
  O18      1.0000 0.94350  0.86030  0.52630  Biso   1.000  O
  O19      1.0000 0.93970  0.91270  0.61640  Biso   1.000  O
  O20      1.0000 0.80890  0.90940  0.55220  Biso   1.000  O
  O21      1.0000 0.13050  0.90870  0.56200  Biso   1.000  O
  O22      1.0000 0.07120  0.77270  0.47530  Biso   1.000  O
  O23      1.0000 0.04150  0.70650  0.40070  Biso   1.000  O
  O24      1.0000 0.04140  0.90770  0.72910  Biso   1.000  O
  O25      1.0000 0.05780  0.54290  0.52350  Biso   1.000  O
  O26      1.0000 0.05650  0.63970  0.52630  Biso   1.000  O
  O27      1.0000 0.06030  0.58730  0.61640  Biso   1.000  O
  O28      1.0000 0.19110  0.59060  0.55220  Biso   1.000  O
  O29      1.0000 0.86950  0.59130  0.56200  Biso   1.000  O
  O30      1.0000 0.92880  0.72730  0.47530  Biso   1.000  O
  O31      1.0000 0.95850  0.79350  0.40070  Biso   1.000  O
  O32      1.0000 0.95860  0.59230  0.72910  Biso   1.000  O
  O33      1.0000 0.55780  0.45710  0.02350  Biso   1.000  O
  O34      1.0000 0.55650  0.36030  0.02630  Biso   1.000  O
  O35      1.0000 0.56030  0.41270  0.11640  Biso   1.000  O
  O36      1.0000 0.69110  0.40940  0.05220  Biso   1.000  O
  O37      1.0000 0.36950  0.40870  0.06200  Biso   1.000  O
  O38      1.0000 0.42880  0.27270  0.97530  Biso   1.000  O
  O39      1.0000 0.45850  0.20650  0.90070  Biso   1.000  O
  O40      1.0000 0.45860  0.40770  0.22910  Biso   1.000  O
  O41      1.0000 0.44220  0.04290  0.02350  Biso   1.000  O
  O42      1.0000 0.44350  0.13970  0.02630  Biso   1.000  O
  O43      1.0000 0.43970  0.08730  0.11640  Biso   1.000  O
  O44      1.0000 0.30890  0.09060  0.05220  Biso   1.000  O
  O45      1.0000 0.63050  0.09130  0.06200  Biso   1.000  O
  O46      1.0000 0.57120  0.22730  0.97530  Biso   1.000  O
  O47      1.0000 0.54150  0.29350  0.90070  Biso   1.000  O
  O48      1.0000 0.54140  0.09230  0.22910  Biso   1.000  O
  O49      1.0000 0.05780  0.04290  0.47650  Biso   1.000  O
  O50      1.0000 0.05650  0.13970  0.47370  Biso   1.000  O
  O51      1.0000 0.06030  0.08730  0.38360  Biso   1.000  O
  O52      1.0000 0.19110  0.09060  0.44780  Biso   1.000  O
  O53      1.0000 0.86950  0.09130  0.43800  Biso   1.000  O
  O54      1.0000 0.92880  0.22730  0.52470  Biso   1.000  O
  O55      1.0000 0.95850  0.29350  0.59930  Biso   1.000  O
  O56      1.0000 0.95860  0.09230  0.27090  Biso   1.000  O
  O57      1.0000 0.94220  0.45710  0.47650  Biso   1.000  O
  O58      1.0000 0.94350  0.36030  0.47370  Biso   1.000  O
  O59      1.0000 0.93970  0.41270  0.38360  Biso   1.000  O
  O60      1.0000 0.80890  0.40940  0.44780  Biso   1.000  O
  O61      1.0000 0.13050  0.40870  0.43800  Biso   1.000  O
  O62      1.0000 0.07120  0.27270  0.52470  Biso   1.000  O
  O63      1.0000 0.04150  0.20650  0.59930  Biso   1.000  O
  O64      1.0000 0.04140  0.40770  0.27090  Biso   1.000  O
