data_image0
_cell_length_a       8.6538
_cell_length_b       14.4144
_cell_length_c       37.4884
_cell_angle_alpha    90
_cell_angle_beta     90
_cell_angle_gamma    90

_symmetry_space_group_name_H-M    "P 1"
_symmetry_int_tables_number       1

loop_
  _symmetry_equiv_pos_as_xyz
  'x, y, z'

loop_
  _atom_site_label
  _atom_site_occupancy
  _atom_site_fract_x
  _atom_site_fract_y
  _atom_site_fract_z
  _atom_site_thermal_displace_type
  _atom_site_B_iso_or_equiv
  _atom_site_type_symbol
  Zn1      1.0000 0.06017  0.28394  0.14143  Biso   1.000  Zn
  O1       1.0000 0.12890  0.21802  0.18447  Biso   1.000  O
  O2       1.0000 0.18210  0.39597  0.13842  Biso   1.000  O
  O3       1.0000 0.05910  0.42982  0.08822  Biso   1.000  O
  O4       1.0000 0.34314  0.18818  0.15502  Biso   1.000  O
  N1       1.0000 0.03350  0.20111  0.09847  Biso   1.000  N
  C1       1.0000 0.26940  0.52679  0.10625  Biso   1.000  C
  C2       1.0000 0.34600  0.71651  0.03992  Biso   1.000  C
  C3       1.0000 0.49840  0.61086  0.12588  Biso   1.000  C
  C4       1.0000 0.35990  0.65719  0.07239  Biso   1.000  C
  C5       1.0000 0.94130  0.03638  0.00502  Biso   1.000  C
  H1       1.0000 0.84260  0.00600  0.00880  Biso   1.000  H
  H2       1.0000 0.92920  0.07850  0.98500  Biso   1.000  H
  C6       1.0000 0.92550  0.22362  0.07458  Biso   1.000  C
  H3       1.0000 0.86820  0.27730  0.07840  Biso   1.000  H
  C7       1.0000 0.15960  0.44594  0.11064  Biso   1.000  C
  C8       1.0000 0.25350  0.58569  0.07734  Biso   1.000  C
  H4       1.0000 0.17250  0.57770  0.06130  Biso   1.000  H
  C9       1.0000 0.97910  0.09270  0.03782  Biso   1.000  C
  C10      1.0000 0.11530  0.12424  0.09204  Biso   1.000  C
  H5       1.0000 0.19060  0.10680  0.10840  Biso   1.000  H
  C11      1.0000 0.09310  0.06961  0.06227  Biso   1.000  C
  H6       1.0000 0.15430  0.01750  0.05860  Biso   1.000  H
  O5       1.0000 0.42570  0.79374  0.04199  Biso   1.000  O
  C12      1.0000 0.63680  0.62445  0.15114  Biso   1.000  C
  C13      1.0000 0.39050  0.53985  0.13012  Biso   1.000  C
  H7       1.0000 0.39970  0.50000  0.14950  Biso   1.000  H
  C14      1.0000 0.89450  0.17222  0.04487  Biso   1.000  C
  H8       1.0000 0.81650  0.19060  0.02930  Biso   1.000  H
  O6       1.0000 0.27490  0.69461  0.01372  Biso   1.000  O
  C15      1.0000 0.47970  0.66913  0.09648  Biso   1.000  C
  H9       1.0000 0.54950  0.71730  0.09300  Biso   1.000  H
  C16      1.0000 0.78750  0.60500  0.13061  Biso   1.000  C
  H10      1.0000 0.78890  0.54150  0.12290  Biso   1.000  H
  H11      1.0000 0.87440  0.61650  0.14590  Biso   1.000  H
  H12      1.0000 0.79330  0.64500  0.11020  Biso   1.000  H
  C17      1.0000 0.63150  0.55860  0.18288  Biso   1.000  C
  H13      1.0000 0.53960  0.57020  0.19650  Biso   1.000  H
  H14      1.0000 0.72070  0.56850  0.19760  Biso   1.000  H
  H15      1.0000 0.63080  0.49570  0.17450  Biso   1.000  H
  C18      1.0000 0.64090  0.72480  0.16409  Biso   1.000  C
  H16      1.0000 0.65310  0.76560  0.14400  Biso   1.000  H
  H17      1.0000 0.72610  0.73290  0.18020  Biso   1.000  H
  H18      1.0000 0.54610  0.73910  0.17620  Biso   1.000  H
  C19      1.0000 0.33440  0.15620  0.21807  Biso   1.000  C
  C20      1.0000 0.26640  0.18951  0.18370  Biso   1.000  C
  C21      1.0000 0.46180  0.09746  0.21819  Biso   1.000  C
  H19      1.0000 0.50550  0.07940  0.19660  Biso   1.000  H
  C22      1.0000 0.66440  0.93730  0.28272  Biso   1.000  C
  H20      1.0000 0.67230  0.97470  0.30380  Biso   1.000  H
  H21      1.0000 0.75040  0.89530  0.28160  Biso   1.000  H
  H22      1.0000 0.56980  0.90260  0.28330  Biso   1.000  H
  H23      1.0000 0.42700  0.82300  0.02410  Biso   1.000  H
  H24      1.0000 0.89910  0.01890  0.24650  Biso   1.000  H
  H25      1.0000 0.82000  0.08980  0.27240  Biso   1.000  H
  H26      1.0000 0.80540  0.10290  0.23110  Biso   1.000  H
  Zn2      1.0000 0.43983  0.78394  0.85857  Biso   1.000  Zn
  O7       1.0000 0.37110  0.71802  0.81553  Biso   1.000  O
  O8       1.0000 0.31790  0.89597  0.86158  Biso   1.000  O
  O9       1.0000 0.44090  0.92982  0.91178  Biso   1.000  O
  O10      1.0000 0.15686  0.68818  0.84498  Biso   1.000  O
  N2       1.0000 0.46650  0.70111  0.90153  Biso   1.000  N
  C23      1.0000 0.23060  0.02679  0.89375  Biso   1.000  C
  C24      1.0000 0.15400  0.21651  0.96008  Biso   1.000  C
  C25      1.0000 0.00160  0.11086  0.87412  Biso   1.000  C
  C26      1.0000 0.14010  0.15719  0.92761  Biso   1.000  C
  C27      1.0000 0.55870  0.53638  0.99498  Biso   1.000  C
  H27      1.0000 0.65740  0.50600  0.99120  Biso   1.000  H
  H28      1.0000 0.57080  0.57850  0.01500  Biso   1.000  H
  C28      1.0000 0.57450  0.72362  0.92542  Biso   1.000  C
  H29      1.0000 0.63180  0.77730  0.92160  Biso   1.000  H
  C29      1.0000 0.34040  0.94594  0.88936  Biso   1.000  C
  C30      1.0000 0.24650  0.08569  0.92266  Biso   1.000  C
  H30      1.0000 0.32750  0.07770  0.93870  Biso   1.000  H
  C31      1.0000 0.52090  0.59270  0.96218  Biso   1.000  C
  C32      1.0000 0.38470  0.62424  0.90796  Biso   1.000  C
  H31      1.0000 0.30940  0.60680  0.89160  Biso   1.000  H
  C33      1.0000 0.40690  0.56961  0.93773  Biso   1.000  C
  H32      1.0000 0.34570  0.51750  0.94140  Biso   1.000  H
  O11      1.0000 0.07430  0.29374  0.95801  Biso   1.000  O
  C34      1.0000 0.86320  0.12445  0.84886  Biso   1.000  C
  C35      1.0000 0.10950  0.03985  0.86988  Biso   1.000  C
  H33      1.0000 0.10030  0.00000  0.85050  Biso   1.000  H
  C36      1.0000 0.60550  0.67222  0.95513  Biso   1.000  C
  H34      1.0000 0.68350  0.69060  0.97070  Biso   1.000  H
  O12      1.0000 0.22510  0.19461  0.98628  Biso   1.000  O
  C37      1.0000 0.02030  0.16913  0.90352  Biso   1.000  C
  H35      1.0000 0.95050  0.21730  0.90700  Biso   1.000  H
  C38      1.0000 0.71250  0.10500  0.86939  Biso   1.000  C
  H36      1.0000 0.71110  0.04150  0.87710  Biso   1.000  H
  H37      1.0000 0.62560  0.11650  0.85410  Biso   1.000  H
  H38      1.0000 0.70670  0.14500  0.88980  Biso   1.000  H
  C39      1.0000 0.86850  0.05860  0.81712  Biso   1.000  C
  H39      1.0000 0.96040  0.07020  0.80350  Biso   1.000  H
  H40      1.0000 0.77930  0.06850  0.80240  Biso   1.000  H
  H41      1.0000 0.86920  0.99570  0.82550  Biso   1.000  H
  C40      1.0000 0.85910  0.22480  0.83591  Biso   1.000  C
  H42      1.0000 0.84690  0.26560  0.85600  Biso   1.000  H
  H43      1.0000 0.77390  0.23290  0.81980  Biso   1.000  H
  H44      1.0000 0.95390  0.23910  0.82380  Biso   1.000  H
  C41      1.0000 0.16560  0.65620  0.78193  Biso   1.000  C
  C42      1.0000 0.23360  0.68951  0.81630  Biso   1.000  C
  C43      1.0000 0.03820  0.59746  0.78181  Biso   1.000  C
  H45      1.0000 0.99450  0.57940  0.80340  Biso   1.000  H
  C44      1.0000 0.83560  0.43730  0.71728  Biso   1.000  C
  H46      1.0000 0.82770  0.47470  0.69620  Biso   1.000  H
  H47      1.0000 0.74960  0.39530  0.71840  Biso   1.000  H
  H48      1.0000 0.93020  0.40260  0.71670  Biso   1.000  H
  H49      1.0000 0.07300  0.32300  0.97590  Biso   1.000  H
  H50      1.0000 0.60090  0.51890  0.75350  Biso   1.000  H
  H51      1.0000 0.68000  0.58980  0.72760  Biso   1.000  H
  H52      1.0000 0.69460  0.60290  0.76890  Biso   1.000  H
  Zn3      1.0000 0.93983  0.71606  0.64143  Biso   1.000  Zn
  O13      1.0000 0.87110  0.78198  0.68447  Biso   1.000  O
  O14      1.0000 0.81790  0.60403  0.63842  Biso   1.000  O
  O15      1.0000 0.94090  0.57018  0.58822  Biso   1.000  O
  O16      1.0000 0.65686  0.81182  0.65502  Biso   1.000  O
  N3       1.0000 0.96650  0.79889  0.59847  Biso   1.000  N
  C45      1.0000 0.73060  0.47321  0.60625  Biso   1.000  C
  C46      1.0000 0.65400  0.28349  0.53992  Biso   1.000  C
  C47      1.0000 0.50160  0.38914  0.62588  Biso   1.000  C
  C48      1.0000 0.64010  0.34281  0.57239  Biso   1.000  C
  C49      1.0000 0.05870  0.96362  0.50502  Biso   1.000  C
  H53      1.0000 0.15740  0.99400  0.50880  Biso   1.000  H
  H54      1.0000 0.07080  0.92150  0.48500  Biso   1.000  H
  C50      1.0000 0.07450  0.77638  0.57458  Biso   1.000  C
  H55      1.0000 0.13180  0.72270  0.57840  Biso   1.000  H
  C51      1.0000 0.84040  0.55406  0.61064  Biso   1.000  C
  C52      1.0000 0.74650  0.41431  0.57734  Biso   1.000  C
  H56      1.0000 0.82750  0.42230  0.56130  Biso   1.000  H
  C53      1.0000 0.02090  0.90730  0.53782  Biso   1.000  C
  C54      1.0000 0.88470  0.87576  0.59204  Biso   1.000  C
  H57      1.0000 0.80940  0.89320  0.60840  Biso   1.000  H
  C55      1.0000 0.90690  0.93039  0.56227  Biso   1.000  C
  H58      1.0000 0.84570  0.98250  0.55860  Biso   1.000  H
  O17      1.0000 0.57430  0.20626  0.54199  Biso   1.000  O
  C56      1.0000 0.36320  0.37555  0.65114  Biso   1.000  C
  C57      1.0000 0.60950  0.46015  0.63012  Biso   1.000  C
  H59      1.0000 0.60030  0.50000  0.64950  Biso   1.000  H
  C58      1.0000 0.10550  0.82778  0.54487  Biso   1.000  C
  H60      1.0000 0.18350  0.80940  0.52930  Biso   1.000  H
  O18      1.0000 0.72510  0.30539  0.51372  Biso   1.000  O
  C59      1.0000 0.52030  0.33087  0.59648  Biso   1.000  C
  H61      1.0000 0.45050  0.28270  0.59300  Biso   1.000  H
  C60      1.0000 0.21250  0.39500  0.63061  Biso   1.000  C
  H62      1.0000 0.21110  0.45850  0.62290  Biso   1.000  H
  H63      1.0000 0.12560  0.38350  0.64590  Biso   1.000  H
  H64      1.0000 0.20670  0.35500  0.61020  Biso   1.000  H
  C61      1.0000 0.36850  0.44140  0.68288  Biso   1.000  C
  H65      1.0000 0.46040  0.42980  0.69650  Biso   1.000  H
  H66      1.0000 0.27930  0.43150  0.69760  Biso   1.000  H
  H67      1.0000 0.36920  0.50430  0.67450  Biso   1.000  H
  C62      1.0000 0.35910  0.27520  0.66409  Biso   1.000  C
  H68      1.0000 0.34690  0.23440  0.64400  Biso   1.000  H
  H69      1.0000 0.27390  0.26710  0.68020  Biso   1.000  H
  H70      1.0000 0.45390  0.26090  0.67620  Biso   1.000  H
  C63      1.0000 0.66560  0.84380  0.71807  Biso   1.000  C
  C64      1.0000 0.73360  0.81049  0.68370  Biso   1.000  C
  C65      1.0000 0.53820  0.90254  0.71819  Biso   1.000  C
  H71      1.0000 0.49450  0.92060  0.69660  Biso   1.000  H
  C66      1.0000 0.33560  0.06270  0.78272  Biso   1.000  C
  H72      1.0000 0.32770  0.02530  0.80380  Biso   1.000  H
  H73      1.0000 0.24960  0.10470  0.78160  Biso   1.000  H
  H74      1.0000 0.43020  0.09740  0.78330  Biso   1.000  H
  H75      1.0000 0.57300  0.17700  0.52410  Biso   1.000  H
  H76      1.0000 0.10090  0.98110  0.74650  Biso   1.000  H
  H77      1.0000 0.18000  0.91020  0.77240  Biso   1.000  H
  H78      1.0000 0.19460  0.89710  0.73110  Biso   1.000  H
  Zn4      1.0000 0.56017  0.21606  0.35857  Biso   1.000  Zn
  O19      1.0000 0.62890  0.28198  0.31553  Biso   1.000  O
  O20      1.0000 0.68210  0.10403  0.36158  Biso   1.000  O
  O21      1.0000 0.55910  0.07018  0.41178  Biso   1.000  O
  O22      1.0000 0.84314  0.31182  0.34498  Biso   1.000  O
  N4       1.0000 0.53350  0.29889  0.40153  Biso   1.000  N
  C67      1.0000 0.76940  0.97321  0.39375  Biso   1.000  C
  C68      1.0000 0.84600  0.78349  0.46008  Biso   1.000  C
  C69      1.0000 0.99840  0.88914  0.37412  Biso   1.000  C
  C70      1.0000 0.85990  0.84281  0.42761  Biso   1.000  C
  C71      1.0000 0.44130  0.46362  0.49498  Biso   1.000  C
  H79      1.0000 0.34260  0.49400  0.49120  Biso   1.000  H
  H80      1.0000 0.42920  0.42150  0.51500  Biso   1.000  H
  C72      1.0000 0.42550  0.27638  0.42542  Biso   1.000  C
  H81      1.0000 0.36820  0.22270  0.42160  Biso   1.000  H
  C73      1.0000 0.65960  0.05406  0.38936  Biso   1.000  C
  C74      1.0000 0.75350  0.91431  0.42266  Biso   1.000  C
  H82      1.0000 0.67250  0.92230  0.43870  Biso   1.000  H
  C75      1.0000 0.47910  0.40730  0.46218  Biso   1.000  C
  C76      1.0000 0.61530  0.37576  0.40796  Biso   1.000  C
  H83      1.0000 0.69060  0.39320  0.39160  Biso   1.000  H
  C77      1.0000 0.59310  0.43039  0.43773  Biso   1.000  C
  H84      1.0000 0.65430  0.48250  0.44140  Biso   1.000  H
  O23      1.0000 0.92570  0.70626  0.45801  Biso   1.000  O
  C78      1.0000 0.13680  0.87555  0.34886  Biso   1.000  C
  C79      1.0000 0.89050  0.96015  0.36988  Biso   1.000  C
  H85      1.0000 0.89970  0.00000  0.35050  Biso   1.000  H
  C80      1.0000 0.39450  0.32778  0.45513  Biso   1.000  C
  H86      1.0000 0.31650  0.30940  0.47070  Biso   1.000  H
  O24      1.0000 0.77490  0.80539  0.48628  Biso   1.000  O
  C81      1.0000 0.97970  0.83087  0.40352  Biso   1.000  C
  H87      1.0000 0.04950  0.78270  0.40700  Biso   1.000  H
  C82      1.0000 0.28750  0.89500  0.36939  Biso   1.000  C
  H88      1.0000 0.28890  0.95850  0.37710  Biso   1.000  H
  H89      1.0000 0.37440  0.88350  0.35410  Biso   1.000  H
  H90      1.0000 0.29330  0.85500  0.38980  Biso   1.000  H
  C83      1.0000 0.13150  0.94140  0.31712  Biso   1.000  C
  H91      1.0000 0.03960  0.92980  0.30350  Biso   1.000  H
  H92      1.0000 0.22070  0.93150  0.30240  Biso   1.000  H
  H93      1.0000 0.13080  0.00430  0.32550  Biso   1.000  H
  C84      1.0000 0.14090  0.77520  0.33591  Biso   1.000  C
  H94      1.0000 0.15310  0.73440  0.35600  Biso   1.000  H
  H95      1.0000 0.22610  0.76710  0.31980  Biso   1.000  H
  H96      1.0000 0.04610  0.76090  0.32380  Biso   1.000  H
  C85      1.0000 0.83440  0.34380  0.28193  Biso   1.000  C
  C86      1.0000 0.76640  0.31049  0.31630  Biso   1.000  C
  C87      1.0000 0.96180  0.40254  0.28181  Biso   1.000  C
  H97      1.0000 0.00550  0.42060  0.30340  Biso   1.000  H
  C88      1.0000 0.16440  0.56270  0.21728  Biso   1.000  C
  H98      1.0000 0.17230  0.52530  0.19620  Biso   1.000  H
  H99      1.0000 0.25040  0.60470  0.21840  Biso   1.000  H
  H100     1.0000 0.06980  0.59740  0.21670  Biso   1.000  H
  H101     1.0000 0.92700  0.67700  0.47590  Biso   1.000  H
  H102     1.0000 0.39910  0.48110  0.25350  Biso   1.000  H
  H103     1.0000 0.32000  0.41020  0.22760  Biso   1.000  H
  H104     1.0000 0.30540  0.39710  0.26890  Biso   1.000  H
  Zn5      1.0000 0.93983  0.71606  0.85857  Biso   1.000  Zn
  O25      1.0000 0.87110  0.78198  0.81553  Biso   1.000  O
  O26      1.0000 0.81790  0.60403  0.86158  Biso   1.000  O
  O27      1.0000 0.94090  0.57018  0.91178  Biso   1.000  O
  O28      1.0000 0.65686  0.81182  0.84498  Biso   1.000  O
  N5       1.0000 0.96650  0.79889  0.90153  Biso   1.000  N
  C89      1.0000 0.73060  0.47321  0.89375  Biso   1.000  C
  C90      1.0000 0.65400  0.28349  0.96008  Biso   1.000  C
  C91      1.0000 0.50160  0.38914  0.87412  Biso   1.000  C
  C92      1.0000 0.64010  0.34281  0.92761  Biso   1.000  C
  C93      1.0000 0.05870  0.96362  0.99498  Biso   1.000  C
  H105     1.0000 0.15740  0.99400  0.99120  Biso   1.000  H
  H106     1.0000 0.07080  0.92150  0.01500  Biso   1.000  H
  C94      1.0000 0.07450  0.77638  0.92542  Biso   1.000  C
  H107     1.0000 0.13180  0.72270  0.92160  Biso   1.000  H
  C95      1.0000 0.84040  0.55406  0.88936  Biso   1.000  C
  C96      1.0000 0.74650  0.41431  0.92266  Biso   1.000  C
  H108     1.0000 0.82750  0.42230  0.93870  Biso   1.000  H
  C97      1.0000 0.02090  0.90730  0.96218  Biso   1.000  C
  C98      1.0000 0.88470  0.87576  0.90796  Biso   1.000  C
  H109     1.0000 0.80940  0.89320  0.89160  Biso   1.000  H
  C99      1.0000 0.90690  0.93039  0.93773  Biso   1.000  C
  H110     1.0000 0.84570  0.98250  0.94140  Biso   1.000  H
  O29      1.0000 0.57430  0.20626  0.95801  Biso   1.000  O
  C100     1.0000 0.36320  0.37555  0.84886  Biso   1.000  C
  C101     1.0000 0.60950  0.46015  0.86988  Biso   1.000  C
  H111     1.0000 0.60030  0.50000  0.85050  Biso   1.000  H
  C102     1.0000 0.10550  0.82778  0.95513  Biso   1.000  C
  H112     1.0000 0.18350  0.80940  0.97070  Biso   1.000  H
  O30      1.0000 0.72510  0.30539  0.98628  Biso   1.000  O
  C103     1.0000 0.52030  0.33087  0.90352  Biso   1.000  C
  H113     1.0000 0.45050  0.28270  0.90700  Biso   1.000  H
  C104     1.0000 0.21250  0.39500  0.86939  Biso   1.000  C
  H114     1.0000 0.21110  0.45850  0.87710  Biso   1.000  H
  H115     1.0000 0.12560  0.38350  0.85410  Biso   1.000  H
  H116     1.0000 0.20670  0.35500  0.88980  Biso   1.000  H
  C105     1.0000 0.36850  0.44140  0.81712  Biso   1.000  C
  H117     1.0000 0.46040  0.42980  0.80350  Biso   1.000  H
  H118     1.0000 0.27930  0.43150  0.80240  Biso   1.000  H
  H119     1.0000 0.36920  0.50430  0.82550  Biso   1.000  H
  C106     1.0000 0.35910  0.27520  0.83591  Biso   1.000  C
  H120     1.0000 0.34690  0.23440  0.85600  Biso   1.000  H
  H121     1.0000 0.27390  0.26710  0.81980  Biso   1.000  H
  H122     1.0000 0.45390  0.26090  0.82380  Biso   1.000  H
  C107     1.0000 0.66560  0.84380  0.78193  Biso   1.000  C
  C108     1.0000 0.73360  0.81049  0.81630  Biso   1.000  C
  C109     1.0000 0.53820  0.90254  0.78181  Biso   1.000  C
  H123     1.0000 0.49450  0.92060  0.80340  Biso   1.000  H
  C110     1.0000 0.33560  0.06270  0.71728  Biso   1.000  C
  H124     1.0000 0.32770  0.02530  0.69620  Biso   1.000  H
  H125     1.0000 0.24960  0.10470  0.71840  Biso   1.000  H
  H126     1.0000 0.43020  0.09740  0.71670  Biso   1.000  H
  H127     1.0000 0.57300  0.17700  0.97590  Biso   1.000  H
  H128     1.0000 0.10090  0.98110  0.75350  Biso   1.000  H
  H129     1.0000 0.18000  0.91020  0.72760  Biso   1.000  H
  H130     1.0000 0.19460  0.89710  0.76890  Biso   1.000  H
  Zn6      1.0000 0.56017  0.21606  0.14143  Biso   1.000  Zn
  O31      1.0000 0.62890  0.28198  0.18447  Biso   1.000  O
  O32      1.0000 0.68210  0.10403  0.13842  Biso   1.000  O
  O33      1.0000 0.55910  0.07018  0.08822  Biso   1.000  O
  O34      1.0000 0.84314  0.31182  0.15502  Biso   1.000  O
  N6       1.0000 0.53350  0.29889  0.09847  Biso   1.000  N
  C111     1.0000 0.76940  0.97321  0.10625  Biso   1.000  C
  C112     1.0000 0.84600  0.78349  0.03992  Biso   1.000  C
  C113     1.0000 0.99840  0.88914  0.12588  Biso   1.000  C
  C114     1.0000 0.85990  0.84281  0.07239  Biso   1.000  C
  C115     1.0000 0.44130  0.46362  0.00502  Biso   1.000  C
  H131     1.0000 0.34260  0.49400  0.00880  Biso   1.000  H
  H132     1.0000 0.42920  0.42150  0.98500  Biso   1.000  H
  C116     1.0000 0.42550  0.27638  0.07458  Biso   1.000  C
  H133     1.0000 0.36820  0.22270  0.07840  Biso   1.000  H
  C117     1.0000 0.65960  0.05406  0.11064  Biso   1.000  C
  C118     1.0000 0.75350  0.91431  0.07734  Biso   1.000  C
  H134     1.0000 0.67250  0.92230  0.06130  Biso   1.000  H
  C119     1.0000 0.47910  0.40730  0.03782  Biso   1.000  C
  C120     1.0000 0.61530  0.37576  0.09204  Biso   1.000  C
  H135     1.0000 0.69060  0.39320  0.10840  Biso   1.000  H
  C121     1.0000 0.59310  0.43039  0.06227  Biso   1.000  C
  H136     1.0000 0.65430  0.48250  0.05860  Biso   1.000  H
  O35      1.0000 0.92570  0.70626  0.04199  Biso   1.000  O
  C122     1.0000 0.13680  0.87555  0.15114  Biso   1.000  C
  C123     1.0000 0.89050  0.96015  0.13012  Biso   1.000  C
  H137     1.0000 0.89970  0.00000  0.14950  Biso   1.000  H
  C124     1.0000 0.39450  0.32778  0.04487  Biso   1.000  C
  H138     1.0000 0.31650  0.30940  0.02930  Biso   1.000  H
  O36      1.0000 0.77490  0.80539  0.01372  Biso   1.000  O
  C125     1.0000 0.97970  0.83087  0.09648  Biso   1.000  C
  H139     1.0000 0.04950  0.78270  0.09300  Biso   1.000  H
  C126     1.0000 0.28750  0.89500  0.13061  Biso   1.000  C
  H140     1.0000 0.28890  0.95850  0.12290  Biso   1.000  H
  H141     1.0000 0.37440  0.88350  0.14590  Biso   1.000  H
  H142     1.0000 0.29330  0.85500  0.11020  Biso   1.000  H
  C127     1.0000 0.13150  0.94140  0.18288  Biso   1.000  C
  H143     1.0000 0.03960  0.92980  0.19650  Biso   1.000  H
  H144     1.0000 0.22070  0.93150  0.19760  Biso   1.000  H
  H145     1.0000 0.13080  0.00430  0.17450  Biso   1.000  H
  C128     1.0000 0.14090  0.77520  0.16409  Biso   1.000  C
  H146     1.0000 0.15310  0.73440  0.14400  Biso   1.000  H
  H147     1.0000 0.22610  0.76710  0.18020  Biso   1.000  H
  H148     1.0000 0.04610  0.76090  0.17620  Biso   1.000  H
  C129     1.0000 0.83440  0.34380  0.21807  Biso   1.000  C
  C130     1.0000 0.76640  0.31049  0.18370  Biso   1.000  C
  C131     1.0000 0.96180  0.40254  0.21819  Biso   1.000  C
  H149     1.0000 0.00550  0.42060  0.19660  Biso   1.000  H
  C132     1.0000 0.16440  0.56270  0.28272  Biso   1.000  C
  H150     1.0000 0.17230  0.52530  0.30380  Biso   1.000  H
  H151     1.0000 0.25040  0.60470  0.28160  Biso   1.000  H
  H152     1.0000 0.06980  0.59740  0.28330  Biso   1.000  H
  H153     1.0000 0.92700  0.67700  0.02410  Biso   1.000  H
  H154     1.0000 0.39910  0.48110  0.24650  Biso   1.000  H
  H155     1.0000 0.32000  0.41020  0.27240  Biso   1.000  H
  H156     1.0000 0.30540  0.39710  0.23110  Biso   1.000  H
  Zn7      1.0000 0.06017  0.28394  0.35857  Biso   1.000  Zn
  O37      1.0000 0.12890  0.21802  0.31553  Biso   1.000  O
  O38      1.0000 0.18210  0.39597  0.36158  Biso   1.000  O
  O39      1.0000 0.05910  0.42982  0.41178  Biso   1.000  O
  O40      1.0000 0.34314  0.18818  0.34498  Biso   1.000  O
  N7       1.0000 0.03350  0.20111  0.40153  Biso   1.000  N
  C133     1.0000 0.26940  0.52679  0.39375  Biso   1.000  C
  C134     1.0000 0.34600  0.71651  0.46008  Biso   1.000  C
  C135     1.0000 0.49840  0.61086  0.37412  Biso   1.000  C
  C136     1.0000 0.35990  0.65719  0.42761  Biso   1.000  C
  C137     1.0000 0.94130  0.03638  0.49498  Biso   1.000  C
  H157     1.0000 0.84260  0.00600  0.49120  Biso   1.000  H
  H158     1.0000 0.92920  0.07850  0.51500  Biso   1.000  H
  C138     1.0000 0.92550  0.22362  0.42542  Biso   1.000  C
  H159     1.0000 0.86820  0.27730  0.42160  Biso   1.000  H
  C139     1.0000 0.15960  0.44594  0.38936  Biso   1.000  C
  C140     1.0000 0.25350  0.58569  0.42266  Biso   1.000  C
  H160     1.0000 0.17250  0.57770  0.43870  Biso   1.000  H
  C141     1.0000 0.97910  0.09270  0.46218  Biso   1.000  C
  C142     1.0000 0.11530  0.12424  0.40796  Biso   1.000  C
  H161     1.0000 0.19060  0.10680  0.39160  Biso   1.000  H
  C143     1.0000 0.09310  0.06961  0.43773  Biso   1.000  C
  H162     1.0000 0.15430  0.01750  0.44140  Biso   1.000  H
  O41      1.0000 0.42570  0.79374  0.45801  Biso   1.000  O
  C144     1.0000 0.63680  0.62445  0.34886  Biso   1.000  C
  C145     1.0000 0.39050  0.53985  0.36988  Biso   1.000  C
  H163     1.0000 0.39970  0.50000  0.35050  Biso   1.000  H
  C146     1.0000 0.89450  0.17222  0.45513  Biso   1.000  C
  H164     1.0000 0.81650  0.19060  0.47070  Biso   1.000  H
  O42      1.0000 0.27490  0.69461  0.48628  Biso   1.000  O
  C147     1.0000 0.47970  0.66913  0.40352  Biso   1.000  C
  H165     1.0000 0.54950  0.71730  0.40700  Biso   1.000  H
  C148     1.0000 0.78750  0.60500  0.36939  Biso   1.000  C
  H166     1.0000 0.78890  0.54150  0.37710  Biso   1.000  H
  H167     1.0000 0.87440  0.61650  0.35410  Biso   1.000  H
  H168     1.0000 0.79330  0.64500  0.38980  Biso   1.000  H
  C149     1.0000 0.63150  0.55860  0.31712  Biso   1.000  C
  H169     1.0000 0.53960  0.57020  0.30350  Biso   1.000  H
  H170     1.0000 0.72070  0.56850  0.30240  Biso   1.000  H
  H171     1.0000 0.63080  0.49570  0.32550  Biso   1.000  H
  C150     1.0000 0.64090  0.72480  0.33591  Biso   1.000  C
  H172     1.0000 0.65310  0.76560  0.35600  Biso   1.000  H
  H173     1.0000 0.72610  0.73290  0.31980  Biso   1.000  H
  H174     1.0000 0.54610  0.73910  0.32380  Biso   1.000  H
  C151     1.0000 0.33440  0.15620  0.28193  Biso   1.000  C
  C152     1.0000 0.26640  0.18951  0.31630  Biso   1.000  C
  C153     1.0000 0.46180  0.09746  0.28181  Biso   1.000  C
  H175     1.0000 0.50550  0.07940  0.30340  Biso   1.000  H
  C154     1.0000 0.66440  0.93730  0.21728  Biso   1.000  C
  H176     1.0000 0.67230  0.97470  0.19620  Biso   1.000  H
  H177     1.0000 0.75040  0.89530  0.21840  Biso   1.000  H
  H178     1.0000 0.56980  0.90260  0.21670  Biso   1.000  H
  H179     1.0000 0.42700  0.82300  0.47590  Biso   1.000  H
  H180     1.0000 0.89910  0.01890  0.25350  Biso   1.000  H
  H181     1.0000 0.82000  0.08980  0.22760  Biso   1.000  H
  H182     1.0000 0.80540  0.10290  0.26890  Biso   1.000  H
  Zn8      1.0000 0.43983  0.78394  0.64143  Biso   1.000  Zn
  O43      1.0000 0.37110  0.71802  0.68447  Biso   1.000  O
  O44      1.0000 0.31790  0.89597  0.63842  Biso   1.000  O
  O45      1.0000 0.44090  0.92982  0.58822  Biso   1.000  O
  O46      1.0000 0.15686  0.68818  0.65502  Biso   1.000  O
  N8       1.0000 0.46650  0.70111  0.59847  Biso   1.000  N
  C155     1.0000 0.23060  0.02679  0.60625  Biso   1.000  C
  C156     1.0000 0.15400  0.21651  0.53992  Biso   1.000  C
  C157     1.0000 0.00160  0.11086  0.62588  Biso   1.000  C
  C158     1.0000 0.14010  0.15719  0.57239  Biso   1.000  C
  C159     1.0000 0.55870  0.53638  0.50502  Biso   1.000  C
  H183     1.0000 0.65740  0.50600  0.50880  Biso   1.000  H
  H184     1.0000 0.57080  0.57850  0.48500  Biso   1.000  H
  C160     1.0000 0.57450  0.72362  0.57458  Biso   1.000  C
  H185     1.0000 0.63180  0.77730  0.57840  Biso   1.000  H
  C161     1.0000 0.34040  0.94594  0.61064  Biso   1.000  C
  C162     1.0000 0.24650  0.08569  0.57734  Biso   1.000  C
  H186     1.0000 0.32750  0.07770  0.56130  Biso   1.000  H
  C163     1.0000 0.52090  0.59270  0.53782  Biso   1.000  C
  C164     1.0000 0.38470  0.62424  0.59204  Biso   1.000  C
  H187     1.0000 0.30940  0.60680  0.60840  Biso   1.000  H
  C165     1.0000 0.40690  0.56961  0.56227  Biso   1.000  C
  H188     1.0000 0.34570  0.51750  0.55860  Biso   1.000  H
  O47      1.0000 0.07430  0.29374  0.54199  Biso   1.000  O
  C166     1.0000 0.86320  0.12445  0.65114  Biso   1.000  C
  C167     1.0000 0.10950  0.03985  0.63012  Biso   1.000  C
  H189     1.0000 0.10030  0.00000  0.64950  Biso   1.000  H
  C168     1.0000 0.60550  0.67222  0.54487  Biso   1.000  C
  H190     1.0000 0.68350  0.69060  0.52930  Biso   1.000  H
  O48      1.0000 0.22510  0.19461  0.51372  Biso   1.000  O
  C169     1.0000 0.02030  0.16913  0.59648  Biso   1.000  C
  H191     1.0000 0.95050  0.21730  0.59300  Biso   1.000  H
  C170     1.0000 0.71250  0.10500  0.63061  Biso   1.000  C
  H192     1.0000 0.71110  0.04150  0.62290  Biso   1.000  H
  H193     1.0000 0.62560  0.11650  0.64590  Biso   1.000  H
  H194     1.0000 0.70670  0.14500  0.61020  Biso   1.000  H
  C171     1.0000 0.86850  0.05860  0.68288  Biso   1.000  C
  H195     1.0000 0.96040  0.07020  0.69650  Biso   1.000  H
  H196     1.0000 0.77930  0.06850  0.69760  Biso   1.000  H
  H197     1.0000 0.86920  0.99570  0.67450  Biso   1.000  H
  C172     1.0000 0.85910  0.22480  0.66409  Biso   1.000  C
  H198     1.0000 0.84690  0.26560  0.64400  Biso   1.000  H
  H199     1.0000 0.77390  0.23290  0.68020  Biso   1.000  H
  H200     1.0000 0.95390  0.23910  0.67620  Biso   1.000  H
  C173     1.0000 0.16560  0.65620  0.71807  Biso   1.000  C
  C174     1.0000 0.23360  0.68951  0.68370  Biso   1.000  C
  C175     1.0000 0.03820  0.59746  0.71819  Biso   1.000  C
  H201     1.0000 0.99450  0.57940  0.69660  Biso   1.000  H
  C176     1.0000 0.83560  0.43730  0.78272  Biso   1.000  C
  H202     1.0000 0.82770  0.47470  0.80380  Biso   1.000  H
  H203     1.0000 0.74960  0.39530  0.78160  Biso   1.000  H
  H204     1.0000 0.93020  0.40260  0.78330  Biso   1.000  H
  H205     1.0000 0.07300  0.32300  0.52410  Biso   1.000  H
  H206     1.0000 0.60090  0.51890  0.74650  Biso   1.000  H
  H207     1.0000 0.68000  0.58980  0.77240  Biso   1.000  H
  H208     1.0000 0.69460  0.60290  0.73110  Biso   1.000  H
  C177     1.0000 0.26720  0.18380  0.25000  Biso   1.000  C
  H209     1.0000 0.17850  0.22020  0.25000  Biso   1.000  H
  C178     1.0000 0.52540  0.06510  0.25000  Biso   1.000  C
  C179     1.0000 0.66550  0.99970  0.25000  Biso   1.000  C
  C180     1.0000 0.81080  0.05820  0.25000  Biso   1.000  C
  C181     1.0000 0.23280  0.68380  0.75000  Biso   1.000  C
  H210     1.0000 0.32150  0.72020  0.75000  Biso   1.000  H
  C182     1.0000 0.97460  0.56510  0.75000  Biso   1.000  C
  C183     1.0000 0.83450  0.49970  0.75000  Biso   1.000  C
  C184     1.0000 0.68920  0.55820  0.75000  Biso   1.000  C
  C185     1.0000 0.73280  0.81620  0.75000  Biso   1.000  C
  H211     1.0000 0.82150  0.77980  0.75000  Biso   1.000  H
  C186     1.0000 0.47460  0.93490  0.75000  Biso   1.000  C
  C187     1.0000 0.33450  0.00030  0.75000  Biso   1.000  C
  C188     1.0000 0.18920  0.94180  0.75000  Biso   1.000  C
  C189     1.0000 0.76720  0.31620  0.25000  Biso   1.000  C
  H212     1.0000 0.67850  0.27980  0.25000  Biso   1.000  H
  C190     1.0000 0.02540  0.43490  0.25000  Biso   1.000  C
  C191     1.0000 0.16550  0.50030  0.25000  Biso   1.000  C
  C192     1.0000 0.31080  0.44180  0.25000  Biso   1.000  C
