data_image0
_cell_length_a       15.1262
_cell_length_b       15.1262
_cell_length_c       15.1262
_cell_angle_alpha    103.594
_cell_angle_beta     103.594
_cell_angle_gamma    103.594

_symmetry_space_group_name_H-M    P 1
_symmetry_int_tables_number       1

loop_
  _symmetry_equiv_pos_as_xyz
  'x, y, z'

loop_
  _atom_site_label
  _atom_site_occupancy
  _atom_site_fract_x
  _atom_site_fract_y
  _atom_site_fract_z
  _atom_site_thermal_displace_type
  _atom_site_B_iso_or_equiv
  _atom_site_type_symbol
  Cu1      1.0000 0.57499  0.97998  0.97998  Biso   1.000  Cu
  Cu2      1.0000 0.97998  0.57499  0.97998  Biso   1.000  Cu
  Cu3      1.0000 0.97998  0.97998  0.57499  Biso   1.000  Cu
  Cu4      1.0000 0.02002  0.42501  0.02002  Biso   1.000  Cu
  Cu5      1.0000 0.42501  0.02002  0.02002  Biso   1.000  Cu
  Cu6      1.0000 0.02002  0.02002  0.42501  Biso   1.000  Cu
  H1       1.0000 0.50810  0.69570  0.98170  Biso   1.000  H
  H2       1.0000 0.98170  0.50810  0.69570  Biso   1.000  H
  H3       1.0000 0.69570  0.98170  0.50810  Biso   1.000  H
  H4       1.0000 0.30430  0.49190  0.01830  Biso   1.000  H
  H5       1.0000 0.49190  0.01830  0.30430  Biso   1.000  H
  H6       1.0000 0.01830  0.30430  0.49190  Biso   1.000  H
  H7       1.0000 0.49190  0.30430  0.01830  Biso   1.000  H
  H8       1.0000 0.01830  0.49190  0.30430  Biso   1.000  H
  H9       1.0000 0.30430  0.01830  0.49190  Biso   1.000  H
  H10      1.0000 0.69570  0.50810  0.98170  Biso   1.000  H
  H11      1.0000 0.50810  0.98170  0.69570  Biso   1.000  H
  H12      1.0000 0.98170  0.69570  0.50810  Biso   1.000  H
  H13      1.0000 0.25975  0.74025  0.00000  Biso   1.000  H
  H14      1.0000 0.00000  0.25975  0.74025  Biso   1.000  H
  H15      1.0000 0.74025  0.00000  0.25975  Biso   1.000  H
  H16      1.0000 0.74025  0.25975  0.00000  Biso   1.000  H
  H17      1.0000 0.00000  0.74025  0.25975  Biso   1.000  H
  H18      1.0000 0.25975  0.00000  0.74025  Biso   1.000  H
  C1       1.0000 0.42500  0.83000  0.98450  Biso   1.000  C
  C2       1.0000 0.38890  0.73200  0.98930  Biso   1.000  C
  C3       1.0000 0.44680  0.67420  0.98920  Biso   1.000  C
  C4       1.0000 0.98450  0.42500  0.83000  Biso   1.000  C
  C5       1.0000 0.98930  0.38890  0.73200  Biso   1.000  C
  C6       1.0000 0.98920  0.44680  0.67420  Biso   1.000  C
  C7       1.0000 0.83000  0.98450  0.42500  Biso   1.000  C
  C8       1.0000 0.73200  0.98930  0.38890  Biso   1.000  C
  C9       1.0000 0.67420  0.98920  0.44680  Biso   1.000  C
  C10      1.0000 0.17000  0.57500  0.01550  Biso   1.000  C
  C11      1.0000 0.26800  0.61110  0.01070  Biso   1.000  C
  C12      1.0000 0.32580  0.55320  0.01080  Biso   1.000  C
  C13      1.0000 0.57500  0.01550  0.17000  Biso   1.000  C
  C14      1.0000 0.61110  0.01070  0.26800  Biso   1.000  C
  C15      1.0000 0.55320  0.01080  0.32580  Biso   1.000  C
  C16      1.0000 0.01550  0.17000  0.57500  Biso   1.000  C
  C17      1.0000 0.01070  0.26800  0.61110  Biso   1.000  C
  C18      1.0000 0.01080  0.32580  0.55320  Biso   1.000  C
  C19      1.0000 0.57500  0.17000  0.01550  Biso   1.000  C
  C20      1.0000 0.61110  0.26800  0.01070  Biso   1.000  C
  C21      1.0000 0.55320  0.32580  0.01080  Biso   1.000  C
  C22      1.0000 0.01550  0.57500  0.17000  Biso   1.000  C
  C23      1.0000 0.01070  0.61110  0.26800  Biso   1.000  C
  C24      1.0000 0.01080  0.55320  0.32580  Biso   1.000  C
  C25      1.0000 0.17000  0.01550  0.57500  Biso   1.000  C
  C26      1.0000 0.26800  0.01070  0.61110  Biso   1.000  C
  C27      1.0000 0.32580  0.01080  0.55320  Biso   1.000  C
  C28      1.0000 0.83000  0.42500  0.98450  Biso   1.000  C
  C29      1.0000 0.73200  0.38890  0.98930  Biso   1.000  C
  C30      1.0000 0.67420  0.44680  0.98920  Biso   1.000  C
  C31      1.0000 0.42500  0.98450  0.83000  Biso   1.000  C
  C32      1.0000 0.38890  0.98930  0.73200  Biso   1.000  C
  C33      1.0000 0.44680  0.98920  0.67420  Biso   1.000  C
  C34      1.0000 0.98450  0.83000  0.42500  Biso   1.000  C
  C35      1.0000 0.98930  0.73200  0.38890  Biso   1.000  C
  C36      1.0000 0.98920  0.67420  0.44680  Biso   1.000  C
  C37      1.0000 0.29975  0.70025  0.00000  Biso   1.000  C
  C38      1.0000 0.41565  0.58435  0.00000  Biso   1.000  C
  C39      1.0000 0.47525  0.52475  0.00000  Biso   1.000  C
  C40      1.0000 0.00000  0.29975  0.70025  Biso   1.000  C
  C41      1.0000 0.00000  0.41565  0.58435  Biso   1.000  C
  C42      1.0000 0.00000  0.47525  0.52475  Biso   1.000  C
  C43      1.0000 0.70025  0.00000  0.29975  Biso   1.000  C
  C44      1.0000 0.58435  0.00000  0.41565  Biso   1.000  C
  C45      1.0000 0.52475  0.00000  0.47525  Biso   1.000  C
  C46      1.0000 0.70025  0.29975  0.00000  Biso   1.000  C
  C47      1.0000 0.58435  0.41565  0.00000  Biso   1.000  C
  C48      1.0000 0.52475  0.47525  1.00000  Biso   1.000  C
  C49      1.0000 0.00000  0.70025  0.29975  Biso   1.000  C
  C50      1.0000 0.00000  0.58435  0.41565  Biso   1.000  C
  C51      1.0000 0.00000  0.52475  0.47525  Biso   1.000  C
  C52      1.0000 0.29975  0.00000  0.70025  Biso   1.000  C
  C53      1.0000 0.41565  0.00000  0.58435  Biso   1.000  C
  C54      1.0000 0.47525  0.00000  0.52475  Biso   1.000  C
  O1       1.0000 0.50253  0.84977  0.96730  Biso   1.000  O
  O2       1.0000 0.37580  0.88400  0.00010  Biso   1.000  O
  O3       1.0000 0.96730  0.50253  0.84977  Biso   1.000  O
  O4       1.0000 0.00010  0.37580  0.88400  Biso   1.000  O
  O5       1.0000 0.84977  0.96730  0.50253  Biso   1.000  O
  O6       1.0000 0.88400  0.00010  0.37580  Biso   1.000  O
  O7       1.0000 0.15023  0.49747  0.03270  Biso   1.000  O
  O8       1.0000 0.11600  0.62420  0.99990  Biso   1.000  O
  O9       1.0000 0.49747  0.03270  0.15023  Biso   1.000  O
  O10      1.0000 0.62420  0.99990  0.11600  Biso   1.000  O
  O11      1.0000 0.03270  0.15023  0.49747  Biso   1.000  O
  O12      1.0000 0.99990  0.11600  0.62420  Biso   1.000  O
  O13      1.0000 0.49747  0.15023  0.03270  Biso   1.000  O
  O14      1.0000 0.62420  0.11600  0.99990  Biso   1.000  O
  O15      1.0000 0.03270  0.49747  0.15023  Biso   1.000  O
  O16      1.0000 0.99990  0.62420  0.11600  Biso   1.000  O
  O17      1.0000 0.15023  0.03270  0.49747  Biso   1.000  O
  O18      1.0000 0.11600  0.99990  0.62420  Biso   1.000  O
  O19      1.0000 0.84977  0.50253  0.96730  Biso   1.000  O
  O20      1.0000 0.88400  0.37580  0.00010  Biso   1.000  O
  O21      1.0000 0.50253  0.96730  0.84977  Biso   1.000  O
  O22      1.0000 0.37580  0.00010  0.88400  Biso   1.000  O
  O23      1.0000 0.96730  0.84977  0.50253  Biso   1.000  O
  O24      1.0000 0.00010  0.88400  0.37580  Biso   1.000  O
  O25      1.0000 0.68830  0.94000  0.94000  Biso   1.000  O
  O26      1.0000 0.94000  0.68830  0.94000  Biso   1.000  O
  O27      1.0000 0.94000  0.94000  0.68830  Biso   1.000  O
  O28      1.0000 0.06000  0.31170  0.06000  Biso   1.000  O
  O29      1.0000 0.31170  0.06000  0.06000  Biso   1.000  O
  O30      1.0000 0.06000  0.06000  0.31170  Biso   1.000  O
