data_image0
_cell_length_a       15.118
_cell_length_b       15.3708
_cell_length_c       15.3708
_cell_angle_alpha    120
_cell_angle_beta     90
_cell_angle_gamma    90

_symmetry_space_group_name_H-M    P 1
_symmetry_int_tables_number       1

loop_
  _symmetry_equiv_pos_as_xyz
  'x, y, z'

loop_
  _atom_site_label
  _atom_site_occupancy
  _atom_site_fract_x
  _atom_site_fract_y
  _atom_site_fract_z
  _atom_site_thermal_displace_type
  _atom_site_B_iso_or_equiv
  _atom_site_type_symbol
  La1      1.0000 0.75000  0.33333  0.66666  Biso   1.000  La
  La2      1.0000 0.75000  0.66667  0.33334  Biso   1.000  La
  La3      1.0000 0.25000  0.66667  0.33334  Biso   1.000  La
  La4      1.0000 0.25000  0.33333  0.66666  Biso   1.000  La
  Zn1      1.0000 0.00000  0.50000  0.50000  Biso   1.000  Zn
  Zn2      1.0000 0.00000  0.00000  0.50000  Biso   1.000  Zn
  Zn3      1.0000 0.00000  0.50000  0.00000  Biso   1.000  Zn
  Zn4      1.0000 0.50000  0.00000  0.50000  Biso   1.000  Zn
  Zn5      1.0000 0.50000  0.50000  0.50000  Biso   1.000  Zn
  Zn6      1.0000 0.50000  0.50000  0.00000  Biso   1.000  Zn
  H1       1.0000 0.76060  0.28700  0.37890  Biso   1.000  H
  H2       1.0000 0.83580  0.21130  0.36720  Biso   1.000  H
  H3       1.0000 0.76060  0.09190  0.71300  Biso   1.000  H
  H4       1.0000 0.83580  0.15590  0.78870  Biso   1.000  H
  H5       1.0000 0.76060  0.62110  0.90810  Biso   1.000  H
  H6       1.0000 0.83580  0.63280  0.84410  Biso   1.000  H
  H7       1.0000 0.76060  0.71300  0.62110  Biso   1.000  H
  H8       1.0000 0.83580  0.78870  0.63280  Biso   1.000  H
  H9       1.0000 0.76060  0.90810  0.28700  Biso   1.000  H
  H10      1.0000 0.83580  0.84410  0.21130  Biso   1.000  H
  H11      1.0000 0.76060  0.37890  0.09190  Biso   1.000  H
  H12      1.0000 0.83580  0.36720  0.15590  Biso   1.000  H
  H13      1.0000 0.73940  0.90810  0.62110  Biso   1.000  H
  H14      1.0000 0.66420  0.84410  0.63280  Biso   1.000  H
  H15      1.0000 0.73940  0.37890  0.28700  Biso   1.000  H
  H16      1.0000 0.66420  0.36720  0.21130  Biso   1.000  H
  H17      1.0000 0.73940  0.71300  0.09190  Biso   1.000  H
  H18      1.0000 0.66420  0.78870  0.15590  Biso   1.000  H
  H19      1.0000 0.73940  0.09190  0.37890  Biso   1.000  H
  H20      1.0000 0.66420  0.15590  0.36720  Biso   1.000  H
  H21      1.0000 0.73940  0.62110  0.71300  Biso   1.000  H
  H22      1.0000 0.66420  0.63280  0.78870  Biso   1.000  H
  H23      1.0000 0.73940  0.28700  0.90810  Biso   1.000  H
  H24      1.0000 0.66420  0.21130  0.84410  Biso   1.000  H
  H25      1.0000 0.23940  0.71300  0.62110  Biso   1.000  H
  H26      1.0000 0.16420  0.78870  0.63280  Biso   1.000  H
  H27      1.0000 0.23940  0.90810  0.28700  Biso   1.000  H
  H28      1.0000 0.16420  0.84410  0.21130  Biso   1.000  H
  H29      1.0000 0.23940  0.37890  0.09190  Biso   1.000  H
  H30      1.0000 0.16420  0.36720  0.15590  Biso   1.000  H
  H31      1.0000 0.23940  0.28700  0.37890  Biso   1.000  H
  H32      1.0000 0.16420  0.21130  0.36720  Biso   1.000  H
  H33      1.0000 0.23940  0.09190  0.71300  Biso   1.000  H
  H34      1.0000 0.16420  0.15590  0.78870  Biso   1.000  H
  H35      1.0000 0.23940  0.62110  0.90810  Biso   1.000  H
  H36      1.0000 0.16420  0.63280  0.84410  Biso   1.000  H
  H37      1.0000 0.26060  0.09190  0.37890  Biso   1.000  H
  H38      1.0000 0.33580  0.15590  0.36720  Biso   1.000  H
  H39      1.0000 0.26060  0.62110  0.71300  Biso   1.000  H
  H40      1.0000 0.33580  0.63280  0.78870  Biso   1.000  H
  H41      1.0000 0.26060  0.28700  0.90810  Biso   1.000  H
  H42      1.0000 0.33580  0.21130  0.84410  Biso   1.000  H
  H43      1.0000 0.26060  0.90810  0.62110  Biso   1.000  H
  H44      1.0000 0.33580  0.84410  0.63280  Biso   1.000  H
  H45      1.0000 0.26060  0.37890  0.28700  Biso   1.000  H
  H46      1.0000 0.33580  0.36720  0.21130  Biso   1.000  H
  H47      1.0000 0.26060  0.71300  0.09190  Biso   1.000  H
  H48      1.0000 0.33580  0.78870  0.15590  Biso   1.000  H
  C1       1.0000 0.85840  0.35300  0.48270  Biso   1.000  C
  C2       1.0000 0.79990  0.26690  0.41560  Biso   1.000  C
  C3       1.0000 0.85840  0.12970  0.64700  Biso   1.000  C
  C4       1.0000 0.79990  0.14870  0.73310  Biso   1.000  C
  C5       1.0000 0.85840  0.51730  0.87030  Biso   1.000  C
  C6       1.0000 0.79990  0.58440  0.85130  Biso   1.000  C
  C7       1.0000 0.85840  0.64700  0.51730  Biso   1.000  C
  C8       1.0000 0.79990  0.73310  0.58440  Biso   1.000  C
  C9       1.0000 0.85840  0.87030  0.35300  Biso   1.000  C
  C10      1.0000 0.79990  0.85130  0.26690  Biso   1.000  C
  C11      1.0000 0.85840  0.48270  0.12970  Biso   1.000  C
  C12      1.0000 0.79990  0.41560  0.14870  Biso   1.000  C
  C13      1.0000 0.64160  0.87030  0.51730  Biso   1.000  C
  C14      1.0000 0.70010  0.85130  0.58440  Biso   1.000  C
  C15      1.0000 0.64160  0.48270  0.35300  Biso   1.000  C
  C16      1.0000 0.70010  0.41560  0.26690  Biso   1.000  C
  C17      1.0000 0.64160  0.64700  0.12970  Biso   1.000  C
  C18      1.0000 0.70010  0.73310  0.14870  Biso   1.000  C
  C19      1.0000 0.64160  0.12970  0.48270  Biso   1.000  C
  C20      1.0000 0.70010  0.14870  0.41560  Biso   1.000  C
  C21      1.0000 0.64160  0.51730  0.64700  Biso   1.000  C
  C22      1.0000 0.70010  0.58440  0.73310  Biso   1.000  C
  C23      1.0000 0.64160  0.35300  0.87030  Biso   1.000  C
  C24      1.0000 0.70010  0.26690  0.85130  Biso   1.000  C
  C25      1.0000 0.14160  0.64700  0.51730  Biso   1.000  C
  C26      1.0000 0.20010  0.73310  0.58440  Biso   1.000  C
  C27      1.0000 0.14160  0.87030  0.35300  Biso   1.000  C
  C28      1.0000 0.20010  0.85130  0.26690  Biso   1.000  C
  C29      1.0000 0.14160  0.48270  0.12970  Biso   1.000  C
  C30      1.0000 0.20010  0.41560  0.14870  Biso   1.000  C
  C31      1.0000 0.14160  0.35300  0.48270  Biso   1.000  C
  C32      1.0000 0.20010  0.26690  0.41560  Biso   1.000  C
  C33      1.0000 0.14160  0.12970  0.64700  Biso   1.000  C
  C34      1.0000 0.20010  0.14870  0.73310  Biso   1.000  C
  C35      1.0000 0.14160  0.51730  0.87030  Biso   1.000  C
  C36      1.0000 0.20010  0.58440  0.85130  Biso   1.000  C
  C37      1.0000 0.35840  0.12970  0.48270  Biso   1.000  C
  C38      1.0000 0.29990  0.14870  0.41560  Biso   1.000  C
  C39      1.0000 0.35840  0.51730  0.64700  Biso   1.000  C
  C40      1.0000 0.29990  0.58440  0.73310  Biso   1.000  C
  C41      1.0000 0.35840  0.35300  0.87030  Biso   1.000  C
  C42      1.0000 0.29990  0.26690  0.85130  Biso   1.000  C
  C43      1.0000 0.35840  0.87030  0.51730  Biso   1.000  C
  C44      1.0000 0.29990  0.85130  0.58440  Biso   1.000  C
  C45      1.0000 0.35840  0.48270  0.35300  Biso   1.000  C
  C46      1.0000 0.29990  0.41560  0.26690  Biso   1.000  C
  C47      1.0000 0.35840  0.64700  0.12970  Biso   1.000  C
  C48      1.0000 0.29990  0.73310  0.14870  Biso   1.000  C
  O1       1.0000 0.85804  0.38205  0.57490  Biso   1.000  O
  O2       1.0000 0.90405  0.38918  0.44119  Biso   1.000  O
  O3       1.0000 0.85804  0.19285  0.61795  Biso   1.000  O
  O4       1.0000 0.90405  0.05201  0.61082  Biso   1.000  O
  O5       1.0000 0.85804  0.42510  0.80715  Biso   1.000  O
  O6       1.0000 0.90405  0.55881  0.94799  Biso   1.000  O
  O7       1.0000 0.85804  0.61795  0.42510  Biso   1.000  O
  O8       1.0000 0.90405  0.61082  0.55881  Biso   1.000  O
  O9       1.0000 0.85804  0.80715  0.38205  Biso   1.000  O
  O10      1.0000 0.90405  0.94799  0.38918  Biso   1.000  O
  O11      1.0000 0.85804  0.57490  0.19285  Biso   1.000  O
  O12      1.0000 0.90405  0.44119  0.05201  Biso   1.000  O
  O13      1.0000 0.64196  0.80715  0.42510  Biso   1.000  O
  O14      1.0000 0.59595  0.94799  0.55881  Biso   1.000  O
  O15      1.0000 0.64196  0.57490  0.38205  Biso   1.000  O
  O16      1.0000 0.59595  0.44119  0.38918  Biso   1.000  O
  O17      1.0000 0.64196  0.61795  0.19285  Biso   1.000  O
  O18      1.0000 0.59595  0.61082  0.05201  Biso   1.000  O
  O19      1.0000 0.64196  0.19285  0.57490  Biso   1.000  O
  O20      1.0000 0.59595  0.05201  0.44119  Biso   1.000  O
  O21      1.0000 0.64196  0.42510  0.61795  Biso   1.000  O
  O22      1.0000 0.59595  0.55881  0.61082  Biso   1.000  O
  O23      1.0000 0.64196  0.38205  0.80715  Biso   1.000  O
  O24      1.0000 0.59595  0.38918  0.94799  Biso   1.000  O
  O25      1.0000 0.14196  0.61795  0.42510  Biso   1.000  O
  O26      1.0000 0.09595  0.61082  0.55881  Biso   1.000  O
  O27      1.0000 0.14196  0.80715  0.38205  Biso   1.000  O
  O28      1.0000 0.09595  0.94799  0.38918  Biso   1.000  O
  O29      1.0000 0.14196  0.57490  0.19285  Biso   1.000  O
  O30      1.0000 0.09595  0.44119  0.05201  Biso   1.000  O
  O31      1.0000 0.14196  0.38205  0.57490  Biso   1.000  O
  O32      1.0000 0.09595  0.38918  0.44119  Biso   1.000  O
  O33      1.0000 0.14196  0.19285  0.61795  Biso   1.000  O
  O34      1.0000 0.09595  0.05201  0.61082  Biso   1.000  O
  O35      1.0000 0.14196  0.42510  0.80715  Biso   1.000  O
  O36      1.0000 0.09595  0.55881  0.94799  Biso   1.000  O
  O37      1.0000 0.35804  0.19285  0.57490  Biso   1.000  O
  O38      1.0000 0.40405  0.05201  0.44119  Biso   1.000  O
  O39      1.0000 0.35804  0.42510  0.61795  Biso   1.000  O
  O40      1.0000 0.40405  0.55881  0.61082  Biso   1.000  O
  O41      1.0000 0.35804  0.38205  0.80715  Biso   1.000  O
  O42      1.0000 0.40405  0.38918  0.94799  Biso   1.000  O
  O43      1.0000 0.35804  0.80715  0.42510  Biso   1.000  O
  O44      1.0000 0.40405  0.94799  0.55881  Biso   1.000  O
  O45      1.0000 0.35804  0.57490  0.38205  Biso   1.000  O
  O46      1.0000 0.40405  0.44119  0.38918  Biso   1.000  O
  O47      1.0000 0.35804  0.61795  0.19285  Biso   1.000  O
  O48      1.0000 0.40405  0.61082  0.05201  Biso   1.000  O
  O49      1.0000 0.75000  0.23609  0.47218  Biso   1.000  O
  O50      1.0000 0.75000  0.23609  0.76391  Biso   1.000  O
  O51      1.0000 0.75000  0.52782  0.76391  Biso   1.000  O
  O52      1.0000 0.75000  0.76391  0.52782  Biso   1.000  O
  O53      1.0000 0.75000  0.76391  0.23609  Biso   1.000  O
  O54      1.0000 0.75000  0.47218  0.23609  Biso   1.000  O
  O55      1.0000 0.25000  0.76391  0.52782  Biso   1.000  O
  O56      1.0000 0.25000  0.76391  0.23609  Biso   1.000  O
  O57      1.0000 0.25000  0.47218  0.23609  Biso   1.000  O
  O58      1.0000 0.25000  0.23609  0.47218  Biso   1.000  O
  O59      1.0000 0.25000  0.23609  0.76391  Biso   1.000  O
  O60      1.0000 0.25000  0.52782  0.76391  Biso   1.000  O
  O61      1.0000 0.00000  0.49194  0.35689  Biso   1.000  O
  O62      1.0000 0.00000  0.86495  0.50806  Biso   1.000  O
  O63      1.0000 0.00000  0.64311  0.13505  Biso   1.000  O
  O64      1.0000 0.00000  0.50806  0.64311  Biso   1.000  O
  O65      1.0000 0.00000  0.13505  0.49194  Biso   1.000  O
  O66      1.0000 0.00000  0.35689  0.86495  Biso   1.000  O
  O67      1.0000 0.50000  0.13505  0.64311  Biso   1.000  O
  O68      1.0000 0.50000  0.35689  0.49194  Biso   1.000  O
  O69      1.0000 0.50000  0.50806  0.86495  Biso   1.000  O
  O70      1.0000 0.50000  0.86495  0.35689  Biso   1.000  O
  O71      1.0000 0.50000  0.64311  0.50806  Biso   1.000  O
  O72      1.0000 0.50000  0.49194  0.13505  Biso   1.000  O
