data_image0
_cell_length_a       25.847
_cell_length_b       16.9043
_cell_length_c       13.2251
_cell_angle_alpha    90
_cell_angle_beta     105.9
_cell_angle_gamma    90

_symmetry_space_group_name_H-M    "P 1"
_symmetry_int_tables_number       1

loop_
  _symmetry_equiv_pos_as_xyz
  'x, y, z'

loop_
  _atom_site_label
  _atom_site_occupancy
  _atom_site_fract_x
  _atom_site_fract_y
  _atom_site_fract_z
  _atom_site_thermal_displace_type
  _atom_site_B_iso_or_equiv
  _atom_site_type_symbol
  O1       1.0000 0.89600  0.60350  0.14390  Biso   1.000  O
  C1       1.0000 0.06735  0.95630  0.45040  Biso   1.000  C
  C2       1.0000 0.02018  0.90070  0.42020  Biso   1.000  C
  C3       1.0000 0.02475  0.82430  0.46120  Biso   1.000  C
  H1       1.0000 0.05630  0.80790  0.50950  Biso   1.000  H
  C4       1.0000 0.98195  0.77340  0.42930  Biso   1.000  C
  C5       1.0000 0.93310  0.79480  0.35670  Biso   1.000  C
  C6       1.0000 0.92941  0.87210  0.31730  Biso   1.000  C
  C7       1.0000 0.97272  0.92390  0.34850  Biso   1.000  C
  H2       1.0000 0.96980  0.97480  0.32090  Biso   1.000  H
  C8       1.0000 0.88362  0.74470  0.33550  Biso   1.000  C
  C9       1.0000 0.86730  0.69050  0.25360  Biso   1.000  C
  C10      1.0000 0.81875  0.65080  0.23380  Biso   1.000  C
  H3       1.0000 0.80860  0.61580  0.17750  Biso   1.000  H
  C11      1.0000 0.78536  0.66350  0.29830  Biso   1.000  C
  C12      1.0000 0.80141  0.71630  0.38230  Biso   1.000  C
  H4       1.0000 0.77960  0.72430  0.42680  Biso   1.000  H
  C13      1.0000 0.84952  0.75690  0.39950  Biso   1.000  C
  C14      1.0000 0.86570  0.81270  0.49190  Biso   1.000  C
  C15      1.0000 0.73213  0.62270  0.27730  Biso   1.000  C
  C16      1.0000 0.87906  0.90040  0.23710  Biso   1.000  C
  Mn1      1.0000 0.13609  0.07142  0.35519  Biso   1.000  Mn
  N1       1.0000 0.99040  0.69300  0.47190  Biso   1.000  N
  N2       1.0000 0.90260  0.67150  0.18820  Biso   1.000  N
  O2       1.0000 0.07029  0.00753  0.38350  Biso   1.000  O
  O3       1.0000 0.10079  0.94692  0.53940  Biso   1.000  O
  O4       1.0000 0.94160  0.70760  0.19260  Biso   1.000  O
  O5       1.0000 0.02180  0.68400  0.55970  Biso   1.000  O
  O6       1.0000 0.96590  0.63850  0.42020  Biso   1.000  O
  O7       1.0000 0.71495  0.58930  0.18950  Biso   1.000  O
  O8       1.0000 0.70890  0.62320  0.34900  Biso   1.000  O
  O9       1.0000 0.85020  0.88250  0.48130  Biso   1.000  O
  O10      1.0000 0.89580  0.78720  0.57590  Biso   1.000  O
  O11      1.0000 0.86089  0.96826  0.25550  Biso   1.000  O
  O12      1.0000 0.85893  0.86020  0.15820  Biso   1.000  O
  O13      1.0000 0.08736  0.12610  0.21530  Biso   1.000  O
  H5       1.0000 0.08410  0.10560  0.15440  Biso   1.000  H
  H6       1.0000 0.05890  0.15000  0.21720  Biso   1.000  H
  C17      1.0000 0.26390  0.11940  0.75740  Biso   1.000  C
  H7       1.0000 0.24460  0.11970  0.80710  Biso   1.000  H
  C18      1.0000 0.32920  0.21180  0.87190  Biso   1.000  C
  H8       1.0000 0.33860  0.26280  0.84850  Biso   1.000  H
  H9       1.0000 0.36230  0.18730  0.91240  Biso   1.000  H
  C19      1.0000 0.29650  0.22590  0.94170  Biso   1.000  C
  H10      1.0000 0.30170  0.18400  0.99260  Biso   1.000  H
  H11      1.0000 0.30640  0.27540  0.97730  Biso   1.000  H
  H12      1.0000 0.25930  0.22770  0.90220  Biso   1.000  H
  C20      1.0000 0.33520  0.17260  0.69620  Biso   1.000  C
  H13      1.0000 0.30970  0.16450  0.62800  Biso   1.000  H
  H14      1.0000 0.35020  0.22540  0.69790  Biso   1.000  H
  C21      1.0000 0.38100  0.10950  0.71510  Biso   1.000  C
  H15      1.0000 0.36700  0.05860  0.72610  Biso   1.000  H
  H16      1.0000 0.39490  0.10720  0.65470  Biso   1.000  H
  H17      1.0000 0.40940  0.12380  0.77590  Biso   1.000  H
  Mn2      1.0000 0.17446  0.01080  0.61609  Biso   1.000  Mn
  N3       1.0000 0.30780  0.16400  0.78030  Biso   1.000  N
  O14      1.0000 0.24600  0.07970  0.68360  Biso   1.000  O
  O15      1.0000 0.19665  0.97760  0.47060  Biso   1.000  O
  H18      1.0000 0.18660  0.92760  0.44350  Biso   1.000  H
  H19      1.0000 0.23130  0.98280  0.47660  Biso   1.000  H
  O16      1.0000 0.88100  0.64010  0.09920  Biso   1.000  O
  O17      1.0000 0.39600  0.10350  0.14390  Biso   1.000  O
  C22      1.0000 0.56735  0.45630  0.45040  Biso   1.000  C
  C23      1.0000 0.52018  0.40070  0.42020  Biso   1.000  C
  C24      1.0000 0.52475  0.32430  0.46120  Biso   1.000  C
  H20      1.0000 0.55630  0.30790  0.50950  Biso   1.000  H
  C25      1.0000 0.48195  0.27340  0.42930  Biso   1.000  C
  C26      1.0000 0.43310  0.29480  0.35670  Biso   1.000  C
  C27      1.0000 0.42941  0.37210  0.31730  Biso   1.000  C
  C28      1.0000 0.47272  0.42390  0.34850  Biso   1.000  C
  H21      1.0000 0.46980  0.47480  0.32090  Biso   1.000  H
  C29      1.0000 0.38362  0.24470  0.33550  Biso   1.000  C
  C30      1.0000 0.36730  0.19050  0.25360  Biso   1.000  C
  C31      1.0000 0.31875  0.15080  0.23380  Biso   1.000  C
  H22      1.0000 0.30860  0.11580  0.17750  Biso   1.000  H
  C32      1.0000 0.28536  0.16350  0.29830  Biso   1.000  C
  C33      1.0000 0.30141  0.21630  0.38230  Biso   1.000  C
  H23      1.0000 0.27960  0.22430  0.42680  Biso   1.000  H
  C34      1.0000 0.34952  0.25690  0.39950  Biso   1.000  C
  C35      1.0000 0.36570  0.31270  0.49190  Biso   1.000  C
  C36      1.0000 0.23213  0.12270  0.27730  Biso   1.000  C
  C37      1.0000 0.37906  0.40040  0.23710  Biso   1.000  C
  Mn3      1.0000 0.63609  0.57142  0.35519  Biso   1.000  Mn
  N4       1.0000 0.49040  0.19300  0.47190  Biso   1.000  N
  N5       1.0000 0.40260  0.17150  0.18820  Biso   1.000  N
  O18      1.0000 0.57029  0.50753  0.38350  Biso   1.000  O
  O19      1.0000 0.60079  0.44692  0.53940  Biso   1.000  O
  O20      1.0000 0.44160  0.20760  0.19260  Biso   1.000  O
  O21      1.0000 0.52180  0.18400  0.55970  Biso   1.000  O
  O22      1.0000 0.46590  0.13850  0.42020  Biso   1.000  O
  O23      1.0000 0.21495  0.08930  0.18950  Biso   1.000  O
  O24      1.0000 0.20890  0.12320  0.34900  Biso   1.000  O
  O25      1.0000 0.35020  0.38250  0.48130  Biso   1.000  O
  O26      1.0000 0.39580  0.28720  0.57590  Biso   1.000  O
  O27      1.0000 0.36089  0.46826  0.25550  Biso   1.000  O
  O28      1.0000 0.35893  0.36020  0.15820  Biso   1.000  O
  O29      1.0000 0.58736  0.62610  0.21530  Biso   1.000  O
  H24      1.0000 0.58410  0.60560  0.15440  Biso   1.000  H
  H25      1.0000 0.55890  0.65000  0.21720  Biso   1.000  H
  C38      1.0000 0.76390  0.61940  0.75740  Biso   1.000  C
  H26      1.0000 0.74460  0.61970  0.80710  Biso   1.000  H
  C39      1.0000 0.82920  0.71180  0.87190  Biso   1.000  C
  H27      1.0000 0.83860  0.76280  0.84850  Biso   1.000  H
  H28      1.0000 0.86230  0.68730  0.91240  Biso   1.000  H
  C40      1.0000 0.79650  0.72590  0.94170  Biso   1.000  C
  H29      1.0000 0.80170  0.68400  0.99260  Biso   1.000  H
  H30      1.0000 0.80640  0.77540  0.97730  Biso   1.000  H
  H31      1.0000 0.75930  0.72770  0.90220  Biso   1.000  H
  C41      1.0000 0.83520  0.67260  0.69620  Biso   1.000  C
  H32      1.0000 0.80970  0.66450  0.62800  Biso   1.000  H
  H33      1.0000 0.85020  0.72540  0.69790  Biso   1.000  H
  C42      1.0000 0.88100  0.60950  0.71510  Biso   1.000  C
  H34      1.0000 0.86700  0.55860  0.72610  Biso   1.000  H
  H35      1.0000 0.89490  0.60720  0.65470  Biso   1.000  H
  H36      1.0000 0.90940  0.62380  0.77590  Biso   1.000  H
  Mn4      1.0000 0.67446  0.51080  0.61609  Biso   1.000  Mn
  N6       1.0000 0.80780  0.66400  0.78030  Biso   1.000  N
  O30      1.0000 0.74600  0.57970  0.68360  Biso   1.000  O
  O31      1.0000 0.69665  0.47760  0.47060  Biso   1.000  O
  H37      1.0000 0.68660  0.42760  0.44350  Biso   1.000  H
  H38      1.0000 0.73130  0.48280  0.47660  Biso   1.000  H
  O32      1.0000 0.38100  0.14010  0.09920  Biso   1.000  O
  O33      1.0000 0.10400  0.60350  0.35610  Biso   1.000  O
  C43      1.0000 0.93265  0.95630  0.04960  Biso   1.000  C
  C44      1.0000 0.97982  0.90070  0.07980  Biso   1.000  C
  C45      1.0000 0.97525  0.82430  0.03880  Biso   1.000  C
  H39      1.0000 0.94370  0.80790  0.99050  Biso   1.000  H
  C46      1.0000 0.01805  0.77340  0.07070  Biso   1.000  C
  C47      1.0000 0.06690  0.79480  0.14330  Biso   1.000  C
  C48      1.0000 0.07059  0.87210  0.18270  Biso   1.000  C
  C49      1.0000 0.02728  0.92390  0.15150  Biso   1.000  C
  H40      1.0000 0.03020  0.97480  0.17910  Biso   1.000  H
  C50      1.0000 0.11638  0.74470  0.16450  Biso   1.000  C
  C51      1.0000 0.13270  0.69050  0.24640  Biso   1.000  C
  C52      1.0000 0.18125  0.65080  0.26620  Biso   1.000  C
  H41      1.0000 0.19140  0.61580  0.32250  Biso   1.000  H
  C53      1.0000 0.21464  0.66350  0.20170  Biso   1.000  C
  C54      1.0000 0.19859  0.71630  0.11770  Biso   1.000  C
  H42      1.0000 0.22040  0.72430  0.07320  Biso   1.000  H
  C55      1.0000 0.15048  0.75690  0.10050  Biso   1.000  C
  C56      1.0000 0.13430  0.81270  0.00810  Biso   1.000  C
  C57      1.0000 0.26787  0.62270  0.22270  Biso   1.000  C
  C58      1.0000 0.12094  0.90040  0.26290  Biso   1.000  C
  Mn5      1.0000 0.86391  0.07142  0.14481  Biso   1.000  Mn
  N7       1.0000 0.00960  0.69300  0.02810  Biso   1.000  N
  N8       1.0000 0.09740  0.67150  0.31180  Biso   1.000  N
  O34      1.0000 0.92971  0.00753  0.11650  Biso   1.000  O
  O35      1.0000 0.89921  0.94692  0.96060  Biso   1.000  O
  O36      1.0000 0.05840  0.70760  0.30740  Biso   1.000  O
  O37      1.0000 0.97820  0.68400  0.94030  Biso   1.000  O
  O38      1.0000 0.03410  0.63850  0.07980  Biso   1.000  O
  O39      1.0000 0.28505  0.58930  0.31050  Biso   1.000  O
  O40      1.0000 0.29110  0.62320  0.15100  Biso   1.000  O
  O41      1.0000 0.14980  0.88250  0.01870  Biso   1.000  O
  O42      1.0000 0.10420  0.78720  0.92410  Biso   1.000  O
  O43      1.0000 0.13911  0.96826  0.24450  Biso   1.000  O
  O44      1.0000 0.14107  0.86020  0.34180  Biso   1.000  O
  O45      1.0000 0.91264  0.12610  0.28470  Biso   1.000  O
  H43      1.0000 0.91590  0.10560  0.34560  Biso   1.000  H
  H44      1.0000 0.94110  0.15000  0.28280  Biso   1.000  H
  C59      1.0000 0.73610  0.11940  0.74260  Biso   1.000  C
  H45      1.0000 0.75540  0.11970  0.69290  Biso   1.000  H
  C60      1.0000 0.67080  0.21180  0.62810  Biso   1.000  C
  H46      1.0000 0.66140  0.26280  0.65150  Biso   1.000  H
  H47      1.0000 0.63770  0.18730  0.58760  Biso   1.000  H
  C61      1.0000 0.70350  0.22590  0.55830  Biso   1.000  C
  H48      1.0000 0.69830  0.18400  0.50740  Biso   1.000  H
  H49      1.0000 0.69360  0.27540  0.52270  Biso   1.000  H
  H50      1.0000 0.74070  0.22770  0.59780  Biso   1.000  H
  C62      1.0000 0.66480  0.17260  0.80380  Biso   1.000  C
  H51      1.0000 0.69030  0.16450  0.87200  Biso   1.000  H
  H52      1.0000 0.64980  0.22540  0.80210  Biso   1.000  H
  C63      1.0000 0.61900  0.10950  0.78490  Biso   1.000  C
  H53      1.0000 0.63300  0.05860  0.77390  Biso   1.000  H
  H54      1.0000 0.60510  0.10720  0.84530  Biso   1.000  H
  H55      1.0000 0.59060  0.12380  0.72410  Biso   1.000  H
  Mn6      1.0000 0.82554  0.01080  0.88391  Biso   1.000  Mn
  N9       1.0000 0.69220  0.16400  0.71970  Biso   1.000  N
  O46      1.0000 0.75400  0.07970  0.81640  Biso   1.000  O
  O47      1.0000 0.80335  0.97760  0.02940  Biso   1.000  O
  H56      1.0000 0.81340  0.92760  0.05650  Biso   1.000  H
  H57      1.0000 0.76870  0.98280  0.02340  Biso   1.000  H
  O48      1.0000 0.11900  0.64010  0.40080  Biso   1.000  O
  O49      1.0000 0.60400  0.10350  0.35610  Biso   1.000  O
  C64      1.0000 0.43265  0.45630  0.04960  Biso   1.000  C
  C65      1.0000 0.47982  0.40070  0.07980  Biso   1.000  C
  C66      1.0000 0.47525  0.32430  0.03880  Biso   1.000  C
  H58      1.0000 0.44370  0.30790  0.99050  Biso   1.000  H
  C67      1.0000 0.51805  0.27340  0.07070  Biso   1.000  C
  C68      1.0000 0.56690  0.29480  0.14330  Biso   1.000  C
  C69      1.0000 0.57059  0.37210  0.18270  Biso   1.000  C
  C70      1.0000 0.52728  0.42390  0.15150  Biso   1.000  C
  H59      1.0000 0.53020  0.47480  0.17910  Biso   1.000  H
  C71      1.0000 0.61638  0.24470  0.16450  Biso   1.000  C
  C72      1.0000 0.63270  0.19050  0.24640  Biso   1.000  C
  C73      1.0000 0.68125  0.15080  0.26620  Biso   1.000  C
  H60      1.0000 0.69140  0.11580  0.32250  Biso   1.000  H
  C74      1.0000 0.71464  0.16350  0.20170  Biso   1.000  C
  C75      1.0000 0.69859  0.21630  0.11770  Biso   1.000  C
  H61      1.0000 0.72040  0.22430  0.07320  Biso   1.000  H
  C76      1.0000 0.65048  0.25690  0.10050  Biso   1.000  C
  C77      1.0000 0.63430  0.31270  0.00810  Biso   1.000  C
  C78      1.0000 0.76787  0.12270  0.22270  Biso   1.000  C
  C79      1.0000 0.62094  0.40040  0.26290  Biso   1.000  C
  Mn7      1.0000 0.36391  0.57142  0.14481  Biso   1.000  Mn
  N10      1.0000 0.50960  0.19300  0.02810  Biso   1.000  N
  N11      1.0000 0.59740  0.17150  0.31180  Biso   1.000  N
  O50      1.0000 0.42971  0.50753  0.11650  Biso   1.000  O
  O51      1.0000 0.39921  0.44692  0.96060  Biso   1.000  O
  O52      1.0000 0.55840  0.20760  0.30740  Biso   1.000  O
  O53      1.0000 0.47820  0.18400  0.94030  Biso   1.000  O
  O54      1.0000 0.53410  0.13850  0.07980  Biso   1.000  O
  O55      1.0000 0.78505  0.08930  0.31050  Biso   1.000  O
  O56      1.0000 0.79110  0.12320  0.15100  Biso   1.000  O
  O57      1.0000 0.64980  0.38250  0.01870  Biso   1.000  O
  O58      1.0000 0.60420  0.28720  0.92410  Biso   1.000  O
  O59      1.0000 0.63911  0.46826  0.24450  Biso   1.000  O
  O60      1.0000 0.64107  0.36020  0.34180  Biso   1.000  O
  O61      1.0000 0.41264  0.62610  0.28470  Biso   1.000  O
  H62      1.0000 0.41590  0.60560  0.34560  Biso   1.000  H
  H63      1.0000 0.44110  0.65000  0.28280  Biso   1.000  H
  C80      1.0000 0.23610  0.61940  0.74260  Biso   1.000  C
  H64      1.0000 0.25540  0.61970  0.69290  Biso   1.000  H
  C81      1.0000 0.17080  0.71180  0.62810  Biso   1.000  C
  H65      1.0000 0.16140  0.76280  0.65150  Biso   1.000  H
  H66      1.0000 0.13770  0.68730  0.58760  Biso   1.000  H
  C82      1.0000 0.20350  0.72590  0.55830  Biso   1.000  C
  H67      1.0000 0.19830  0.68400  0.50740  Biso   1.000  H
  H68      1.0000 0.19360  0.77540  0.52270  Biso   1.000  H
  H69      1.0000 0.24070  0.72770  0.59780  Biso   1.000  H
  C83      1.0000 0.16480  0.67260  0.80380  Biso   1.000  C
  H70      1.0000 0.19030  0.66450  0.87200  Biso   1.000  H
  H71      1.0000 0.14980  0.72540  0.80210  Biso   1.000  H
  C84      1.0000 0.11900  0.60950  0.78490  Biso   1.000  C
  H72      1.0000 0.13300  0.55860  0.77390  Biso   1.000  H
  H73      1.0000 0.10510  0.60720  0.84530  Biso   1.000  H
  H74      1.0000 0.09060  0.62380  0.72410  Biso   1.000  H
  Mn8      1.0000 0.32554  0.51080  0.88391  Biso   1.000  Mn
  N12      1.0000 0.19220  0.66400  0.71970  Biso   1.000  N
  O62      1.0000 0.25400  0.57970  0.81640  Biso   1.000  O
  O63      1.0000 0.30335  0.47760  0.02940  Biso   1.000  O
  H75      1.0000 0.31340  0.42760  0.05650  Biso   1.000  H
  H76      1.0000 0.26870  0.48280  0.02340  Biso   1.000  H
  O64      1.0000 0.61900  0.14010  0.40080  Biso   1.000  O
  O65      1.0000 0.10400  0.39650  0.85610  Biso   1.000  O
  C85      1.0000 0.93265  0.04370  0.54960  Biso   1.000  C
  C86      1.0000 0.97982  0.09930  0.57980  Biso   1.000  C
  C87      1.0000 0.97525  0.17570  0.53880  Biso   1.000  C
  H77      1.0000 0.94370  0.19210  0.49050  Biso   1.000  H
  C88      1.0000 0.01805  0.22660  0.57070  Biso   1.000  C
  C89      1.0000 0.06690  0.20520  0.64330  Biso   1.000  C
  C90      1.0000 0.07059  0.12790  0.68270  Biso   1.000  C
  C91      1.0000 0.02728  0.07610  0.65150  Biso   1.000  C
  H78      1.0000 0.03020  0.02520  0.67910  Biso   1.000  H
  C92      1.0000 0.11638  0.25530  0.66450  Biso   1.000  C
  C93      1.0000 0.13270  0.30950  0.74640  Biso   1.000  C
  C94      1.0000 0.18125  0.34920  0.76620  Biso   1.000  C
  H79      1.0000 0.19140  0.38420  0.82250  Biso   1.000  H
  C95      1.0000 0.21464  0.33650  0.70170  Biso   1.000  C
  C96      1.0000 0.19859  0.28370  0.61770  Biso   1.000  C
  H80      1.0000 0.22040  0.27570  0.57320  Biso   1.000  H
  C97      1.0000 0.15048  0.24310  0.60050  Biso   1.000  C
  C98      1.0000 0.13430  0.18730  0.50810  Biso   1.000  C
  C99      1.0000 0.26787  0.37730  0.72270  Biso   1.000  C
  C100     1.0000 0.12094  0.09960  0.76290  Biso   1.000  C
  Mn9      1.0000 0.86391  0.92858  0.64481  Biso   1.000  Mn
  N13      1.0000 0.00960  0.30700  0.52810  Biso   1.000  N
  N14      1.0000 0.09740  0.32850  0.81180  Biso   1.000  N
  O66      1.0000 0.92971  0.99247  0.61650  Biso   1.000  O
  O67      1.0000 0.89921  0.05308  0.46060  Biso   1.000  O
  O68      1.0000 0.05840  0.29240  0.80740  Biso   1.000  O
  O69      1.0000 0.97820  0.31600  0.44030  Biso   1.000  O
  O70      1.0000 0.03410  0.36150  0.57980  Biso   1.000  O
  O71      1.0000 0.28505  0.41070  0.81050  Biso   1.000  O
  O72      1.0000 0.29110  0.37680  0.65100  Biso   1.000  O
  O73      1.0000 0.14980  0.11750  0.51870  Biso   1.000  O
  O74      1.0000 0.10420  0.21280  0.42410  Biso   1.000  O
  O75      1.0000 0.13911  0.03174  0.74450  Biso   1.000  O
  O76      1.0000 0.14107  0.13980  0.84180  Biso   1.000  O
  O77      1.0000 0.91264  0.87390  0.78470  Biso   1.000  O
  H81      1.0000 0.91590  0.89440  0.84560  Biso   1.000  H
  H82      1.0000 0.94110  0.85000  0.78280  Biso   1.000  H
  C101     1.0000 0.73610  0.88060  0.24260  Biso   1.000  C
  H83      1.0000 0.75540  0.88030  0.19290  Biso   1.000  H
  C102     1.0000 0.67080  0.78820  0.12810  Biso   1.000  C
  H84      1.0000 0.66140  0.73720  0.15150  Biso   1.000  H
  H85      1.0000 0.63770  0.81270  0.08760  Biso   1.000  H
  C103     1.0000 0.70350  0.77410  0.05830  Biso   1.000  C
  H86      1.0000 0.69830  0.81600  0.00740  Biso   1.000  H
  H87      1.0000 0.69360  0.72460  0.02270  Biso   1.000  H
  H88      1.0000 0.74070  0.77230  0.09780  Biso   1.000  H
  C104     1.0000 0.66480  0.82740  0.30380  Biso   1.000  C
  H89      1.0000 0.69030  0.83550  0.37200  Biso   1.000  H
  H90      1.0000 0.64980  0.77460  0.30210  Biso   1.000  H
  C105     1.0000 0.61900  0.89050  0.28490  Biso   1.000  C
  H91      1.0000 0.63300  0.94140  0.27390  Biso   1.000  H
  H92      1.0000 0.60510  0.89280  0.34530  Biso   1.000  H
  H93      1.0000 0.59060  0.87620  0.22410  Biso   1.000  H
  Mn10     1.0000 0.82554  0.98920  0.38391  Biso   1.000  Mn
  N15      1.0000 0.69220  0.83600  0.21970  Biso   1.000  N
  O78      1.0000 0.75400  0.92030  0.31640  Biso   1.000  O
  O79      1.0000 0.80335  0.02240  0.52940  Biso   1.000  O
  H94      1.0000 0.81340  0.07240  0.55650  Biso   1.000  H
  H95      1.0000 0.76870  0.01720  0.52340  Biso   1.000  H
  O80      1.0000 0.11900  0.35990  0.90080  Biso   1.000  O
  O81      1.0000 0.60400  0.89650  0.85610  Biso   1.000  O
  C106     1.0000 0.43265  0.54370  0.54960  Biso   1.000  C
  C107     1.0000 0.47982  0.59930  0.57980  Biso   1.000  C
  C108     1.0000 0.47525  0.67570  0.53880  Biso   1.000  C
  H96      1.0000 0.44370  0.69210  0.49050  Biso   1.000  H
  C109     1.0000 0.51805  0.72660  0.57070  Biso   1.000  C
  C110     1.0000 0.56690  0.70520  0.64330  Biso   1.000  C
  C111     1.0000 0.57059  0.62790  0.68270  Biso   1.000  C
  C112     1.0000 0.52728  0.57610  0.65150  Biso   1.000  C
  H97      1.0000 0.53020  0.52520  0.67910  Biso   1.000  H
  C113     1.0000 0.61638  0.75530  0.66450  Biso   1.000  C
  C114     1.0000 0.63270  0.80950  0.74640  Biso   1.000  C
  C115     1.0000 0.68125  0.84920  0.76620  Biso   1.000  C
  H98      1.0000 0.69140  0.88420  0.82250  Biso   1.000  H
  C116     1.0000 0.71464  0.83650  0.70170  Biso   1.000  C
  C117     1.0000 0.69859  0.78370  0.61770  Biso   1.000  C
  H99      1.0000 0.72040  0.77570  0.57320  Biso   1.000  H
  C118     1.0000 0.65048  0.74310  0.60050  Biso   1.000  C
  C119     1.0000 0.63430  0.68730  0.50810  Biso   1.000  C
  C120     1.0000 0.76787  0.87730  0.72270  Biso   1.000  C
  C121     1.0000 0.62094  0.59960  0.76290  Biso   1.000  C
  Mn11     1.0000 0.36391  0.42858  0.64481  Biso   1.000  Mn
  N16      1.0000 0.50960  0.80700  0.52810  Biso   1.000  N
  N17      1.0000 0.59740  0.82850  0.81180  Biso   1.000  N
  O82      1.0000 0.42971  0.49247  0.61650  Biso   1.000  O
  O83      1.0000 0.39921  0.55308  0.46060  Biso   1.000  O
  O84      1.0000 0.55840  0.79240  0.80740  Biso   1.000  O
  O85      1.0000 0.47820  0.81600  0.44030  Biso   1.000  O
  O86      1.0000 0.53410  0.86150  0.57980  Biso   1.000  O
  O87      1.0000 0.78505  0.91070  0.81050  Biso   1.000  O
  O88      1.0000 0.79110  0.87680  0.65100  Biso   1.000  O
  O89      1.0000 0.64980  0.61750  0.51870  Biso   1.000  O
  O90      1.0000 0.60420  0.71280  0.42410  Biso   1.000  O
  O91      1.0000 0.63911  0.53174  0.74450  Biso   1.000  O
  O92      1.0000 0.64107  0.63980  0.84180  Biso   1.000  O
  O93      1.0000 0.41264  0.37390  0.78470  Biso   1.000  O
  H100     1.0000 0.41590  0.39440  0.84560  Biso   1.000  H
  H101     1.0000 0.44110  0.35000  0.78280  Biso   1.000  H
  C122     1.0000 0.23610  0.38060  0.24260  Biso   1.000  C
  H102     1.0000 0.25540  0.38030  0.19290  Biso   1.000  H
  C123     1.0000 0.17080  0.28820  0.12810  Biso   1.000  C
  H103     1.0000 0.16140  0.23720  0.15150  Biso   1.000  H
  H104     1.0000 0.13770  0.31270  0.08760  Biso   1.000  H
  C124     1.0000 0.20350  0.27410  0.05830  Biso   1.000  C
  H105     1.0000 0.19830  0.31600  0.00740  Biso   1.000  H
  H106     1.0000 0.19360  0.22460  0.02270  Biso   1.000  H
  H107     1.0000 0.24070  0.27230  0.09780  Biso   1.000  H
  C125     1.0000 0.16480  0.32740  0.30380  Biso   1.000  C
  H108     1.0000 0.19030  0.33550  0.37200  Biso   1.000  H
  H109     1.0000 0.14980  0.27460  0.30210  Biso   1.000  H
  C126     1.0000 0.11900  0.39050  0.28490  Biso   1.000  C
  H110     1.0000 0.13300  0.44140  0.27390  Biso   1.000  H
  H111     1.0000 0.10510  0.39280  0.34530  Biso   1.000  H
  H112     1.0000 0.09060  0.37620  0.22410  Biso   1.000  H
  Mn12     1.0000 0.32554  0.48920  0.38391  Biso   1.000  Mn
  N18      1.0000 0.19220  0.33600  0.21970  Biso   1.000  N
  O94      1.0000 0.25400  0.42030  0.31640  Biso   1.000  O
  O95      1.0000 0.30335  0.52240  0.52940  Biso   1.000  O
  H113     1.0000 0.31340  0.57240  0.55650  Biso   1.000  H
  H114     1.0000 0.26870  0.51720  0.52340  Biso   1.000  H
  O96      1.0000 0.61900  0.85990  0.90080  Biso   1.000  O
  O97      1.0000 0.89600  0.39650  0.64390  Biso   1.000  O
  C127     1.0000 0.06735  0.04370  0.95040  Biso   1.000  C
  C128     1.0000 0.02018  0.09930  0.92020  Biso   1.000  C
  C129     1.0000 0.02475  0.17570  0.96120  Biso   1.000  C
  H115     1.0000 0.05630  0.19210  0.00950  Biso   1.000  H
  C130     1.0000 0.98195  0.22660  0.92930  Biso   1.000  C
  C131     1.0000 0.93310  0.20520  0.85670  Biso   1.000  C
  C132     1.0000 0.92941  0.12790  0.81730  Biso   1.000  C
  C133     1.0000 0.97272  0.07610  0.84850  Biso   1.000  C
  H116     1.0000 0.96980  0.02520  0.82090  Biso   1.000  H
  C134     1.0000 0.88362  0.25530  0.83550  Biso   1.000  C
  C135     1.0000 0.86730  0.30950  0.75360  Biso   1.000  C
  C136     1.0000 0.81875  0.34920  0.73380  Biso   1.000  C
  H117     1.0000 0.80860  0.38420  0.67750  Biso   1.000  H
  C137     1.0000 0.78536  0.33650  0.79830  Biso   1.000  C
  C138     1.0000 0.80141  0.28370  0.88230  Biso   1.000  C
  H118     1.0000 0.77960  0.27570  0.92680  Biso   1.000  H
  C139     1.0000 0.84952  0.24310  0.89950  Biso   1.000  C
  C140     1.0000 0.86570  0.18730  0.99190  Biso   1.000  C
  C141     1.0000 0.73213  0.37730  0.77730  Biso   1.000  C
  C142     1.0000 0.87906  0.09960  0.73710  Biso   1.000  C
  Mn13     1.0000 0.13609  0.92858  0.85519  Biso   1.000  Mn
  N19      1.0000 0.99040  0.30700  0.97190  Biso   1.000  N
  N20      1.0000 0.90260  0.32850  0.68820  Biso   1.000  N
  O98      1.0000 0.07029  0.99247  0.88350  Biso   1.000  O
  O99      1.0000 0.10079  0.05308  0.03940  Biso   1.000  O
  O100     1.0000 0.94160  0.29240  0.69260  Biso   1.000  O
  O101     1.0000 0.02180  0.31600  0.05970  Biso   1.000  O
  O102     1.0000 0.96590  0.36150  0.92020  Biso   1.000  O
  O103     1.0000 0.71495  0.41070  0.68950  Biso   1.000  O
  O104     1.0000 0.70890  0.37680  0.84900  Biso   1.000  O
  O105     1.0000 0.85020  0.11750  0.98130  Biso   1.000  O
  O106     1.0000 0.89580  0.21280  0.07590  Biso   1.000  O
  O107     1.0000 0.86089  0.03174  0.75550  Biso   1.000  O
  O108     1.0000 0.85893  0.13980  0.65820  Biso   1.000  O
  O109     1.0000 0.08736  0.87390  0.71530  Biso   1.000  O
  H119     1.0000 0.08410  0.89440  0.65440  Biso   1.000  H
  H120     1.0000 0.05890  0.85000  0.71720  Biso   1.000  H
  C143     1.0000 0.26390  0.88060  0.25740  Biso   1.000  C
  H121     1.0000 0.24460  0.88030  0.30710  Biso   1.000  H
  C144     1.0000 0.32920  0.78820  0.37190  Biso   1.000  C
  H122     1.0000 0.33860  0.73720  0.34850  Biso   1.000  H
  H123     1.0000 0.36230  0.81270  0.41240  Biso   1.000  H
  C145     1.0000 0.29650  0.77410  0.44170  Biso   1.000  C
  H124     1.0000 0.30170  0.81600  0.49260  Biso   1.000  H
  H125     1.0000 0.30640  0.72460  0.47730  Biso   1.000  H
  H126     1.0000 0.25930  0.77230  0.40220  Biso   1.000  H
  C146     1.0000 0.33520  0.82740  0.19620  Biso   1.000  C
  H127     1.0000 0.30970  0.83550  0.12800  Biso   1.000  H
  H128     1.0000 0.35020  0.77460  0.19790  Biso   1.000  H
  C147     1.0000 0.38100  0.89050  0.21510  Biso   1.000  C
  H129     1.0000 0.36700  0.94140  0.22610  Biso   1.000  H
  H130     1.0000 0.39490  0.89280  0.15470  Biso   1.000  H
  H131     1.0000 0.40940  0.87620  0.27590  Biso   1.000  H
  Mn14     1.0000 0.17446  0.98920  0.11609  Biso   1.000  Mn
  N21      1.0000 0.30780  0.83600  0.28030  Biso   1.000  N
  O110     1.0000 0.24600  0.92030  0.18360  Biso   1.000  O
  O111     1.0000 0.19665  0.02240  0.97060  Biso   1.000  O
  H132     1.0000 0.18660  0.07240  0.94350  Biso   1.000  H
  H133     1.0000 0.23130  0.01720  0.97660  Biso   1.000  H
  O112     1.0000 0.88100  0.35990  0.59920  Biso   1.000  O
  O113     1.0000 0.39600  0.89650  0.64390  Biso   1.000  O
  C148     1.0000 0.56735  0.54370  0.95040  Biso   1.000  C
  C149     1.0000 0.52018  0.59930  0.92020  Biso   1.000  C
  C150     1.0000 0.52475  0.67570  0.96120  Biso   1.000  C
  H134     1.0000 0.55630  0.69210  0.00950  Biso   1.000  H
  C151     1.0000 0.48195  0.72660  0.92930  Biso   1.000  C
  C152     1.0000 0.43310  0.70520  0.85670  Biso   1.000  C
  C153     1.0000 0.42941  0.62790  0.81730  Biso   1.000  C
  C154     1.0000 0.47272  0.57610  0.84850  Biso   1.000  C
  H135     1.0000 0.46980  0.52520  0.82090  Biso   1.000  H
  C155     1.0000 0.38362  0.75530  0.83550  Biso   1.000  C
  C156     1.0000 0.36730  0.80950  0.75360  Biso   1.000  C
  C157     1.0000 0.31875  0.84920  0.73380  Biso   1.000  C
  H136     1.0000 0.30860  0.88420  0.67750  Biso   1.000  H
  C158     1.0000 0.28536  0.83650  0.79830  Biso   1.000  C
  C159     1.0000 0.30141  0.78370  0.88230  Biso   1.000  C
  H137     1.0000 0.27960  0.77570  0.92680  Biso   1.000  H
  C160     1.0000 0.34952  0.74310  0.89950  Biso   1.000  C
  C161     1.0000 0.36570  0.68730  0.99190  Biso   1.000  C
  C162     1.0000 0.23213  0.87730  0.77730  Biso   1.000  C
  C163     1.0000 0.37906  0.59960  0.73710  Biso   1.000  C
  Mn15     1.0000 0.63609  0.42858  0.85519  Biso   1.000  Mn
  N22      1.0000 0.49040  0.80700  0.97190  Biso   1.000  N
  N23      1.0000 0.40260  0.82850  0.68820  Biso   1.000  N
  O114     1.0000 0.57029  0.49247  0.88350  Biso   1.000  O
  O115     1.0000 0.60079  0.55308  0.03940  Biso   1.000  O
  O116     1.0000 0.44160  0.79240  0.69260  Biso   1.000  O
  O117     1.0000 0.52180  0.81600  0.05970  Biso   1.000  O
  O118     1.0000 0.46590  0.86150  0.92020  Biso   1.000  O
  O119     1.0000 0.21495  0.91070  0.68950  Biso   1.000  O
  O120     1.0000 0.20890  0.87680  0.84900  Biso   1.000  O
  O121     1.0000 0.35020  0.61750  0.98130  Biso   1.000  O
  O122     1.0000 0.39580  0.71280  0.07590  Biso   1.000  O
  O123     1.0000 0.36089  0.53174  0.75550  Biso   1.000  O
  O124     1.0000 0.35893  0.63980  0.65820  Biso   1.000  O
  O125     1.0000 0.58736  0.37390  0.71530  Biso   1.000  O
  H138     1.0000 0.58410  0.39440  0.65440  Biso   1.000  H
  H139     1.0000 0.55890  0.35000  0.71720  Biso   1.000  H
  C164     1.0000 0.76390  0.38060  0.25740  Biso   1.000  C
  H140     1.0000 0.74460  0.38030  0.30710  Biso   1.000  H
  C165     1.0000 0.82920  0.28820  0.37190  Biso   1.000  C
  H141     1.0000 0.83860  0.23720  0.34850  Biso   1.000  H
  H142     1.0000 0.86230  0.31270  0.41240  Biso   1.000  H
  C166     1.0000 0.79650  0.27410  0.44170  Biso   1.000  C
  H143     1.0000 0.80170  0.31600  0.49260  Biso   1.000  H
  H144     1.0000 0.80640  0.22460  0.47730  Biso   1.000  H
  H145     1.0000 0.75930  0.27230  0.40220  Biso   1.000  H
  C167     1.0000 0.83520  0.32740  0.19620  Biso   1.000  C
  H146     1.0000 0.80970  0.33550  0.12800  Biso   1.000  H
  H147     1.0000 0.85020  0.27460  0.19790  Biso   1.000  H
  C168     1.0000 0.88100  0.39050  0.21510  Biso   1.000  C
  H148     1.0000 0.86700  0.44140  0.22610  Biso   1.000  H
  H149     1.0000 0.89490  0.39280  0.15470  Biso   1.000  H
  H150     1.0000 0.90940  0.37620  0.27590  Biso   1.000  H
  Mn16     1.0000 0.67446  0.48920  0.11609  Biso   1.000  Mn
  N24      1.0000 0.80780  0.33600  0.28030  Biso   1.000  N
  O126     1.0000 0.74600  0.42030  0.18360  Biso   1.000  O
  O127     1.0000 0.69665  0.52240  0.97060  Biso   1.000  O
  H151     1.0000 0.68660  0.57240  0.94350  Biso   1.000  H
  H152     1.0000 0.73130  0.51720  0.97660  Biso   1.000  H
  O128     1.0000 0.38100  0.85990  0.59920  Biso   1.000  O
