data_image0
_cell_length_a       7.43617
_cell_length_b       9.3446
_cell_length_c       10.2711
_cell_angle_alpha    90
_cell_angle_beta     111.223
_cell_angle_gamma    90

_symmetry_space_group_name_H-M    P 1
_symmetry_int_tables_number       1

loop_
  _symmetry_equiv_pos_as_xyz
  'x, y, z'

loop_
  _atom_site_label
  _atom_site_occupancy
  _atom_site_fract_x
  _atom_site_fract_y
  _atom_site_fract_z
  _atom_site_thermal_displace_type
  _atom_site_B_iso_or_equiv
  _atom_site_type_symbol
  V1       1.0000 0.53528  0.25000  0.48222  Biso   1.000  V
  V2       1.0000 0.46472  0.75000  0.51778  Biso   1.000  V
  V3       1.0000 0.94694  0.25000  0.48222  Biso   1.000  V
  V4       1.0000 0.05306  0.75000  0.51778  Biso   1.000  V
  P1       1.0000 0.81948  0.51552  0.63896  Biso   1.000  P
  P2       1.0000 0.18052  0.01552  0.36104  Biso   1.000  P
  P3       1.0000 0.81948  0.98448  0.63896  Biso   1.000  P
  P4       1.0000 0.18052  0.48448  0.36104  Biso   1.000  P
  H1       1.0000 0.80040  0.37370  0.81540  Biso   1.000  H
  H2       1.0000 0.85470  0.60190  0.92480  Biso   1.000  H
  H3       1.0000 0.19960  0.87370  0.18460  Biso   1.000  H
  H4       1.0000 0.14530  0.10190  0.07520  Biso   1.000  H
  H5       1.0000 0.01500  0.12630  0.81540  Biso   1.000  H
  H6       1.0000 0.07010  0.89810  0.92480  Biso   1.000  H
  H7       1.0000 0.98500  0.62630  0.18460  Biso   1.000  H
  H8       1.0000 0.92990  0.39810  0.07520  Biso   1.000  H
  H9       1.0000 0.19960  0.62630  0.18460  Biso   1.000  H
  H10      1.0000 0.14530  0.39810  0.07520  Biso   1.000  H
  H11      1.0000 0.80040  0.12630  0.81540  Biso   1.000  H
  H12      1.0000 0.85470  0.89810  0.92480  Biso   1.000  H
  H13      1.0000 0.98500  0.87370  0.18460  Biso   1.000  H
  H14      1.0000 0.92990  0.10190  0.07520  Biso   1.000  H
  H15      1.0000 0.01500  0.37370  0.81540  Biso   1.000  H
  H16      1.0000 0.07010  0.60190  0.92480  Biso   1.000  H
  H17      1.0000 0.37000  0.80700  0.74000  Biso   1.000  H
  H18      1.0000 0.63000  0.30700  0.26000  Biso   1.000  H
  H19      1.0000 0.37000  0.69300  0.74000  Biso   1.000  H
  H20      1.0000 0.63000  0.19300  0.26000  Biso   1.000  H
  C1       1.0000 0.90379  0.43590  0.80758  Biso   1.000  C
  C2       1.0000 0.96515  0.53990  0.93030  Biso   1.000  C
  C3       1.0000 0.09621  0.93590  0.19242  Biso   1.000  C
  C4       1.0000 0.03485  0.03990  0.06970  Biso   1.000  C
  C5       1.0000 0.90379  0.06410  0.80758  Biso   1.000  C
  C6       1.0000 0.96515  0.96010  0.93030  Biso   1.000  C
  C7       1.0000 0.09621  0.56410  0.19242  Biso   1.000  C
  C8       1.0000 0.03485  0.46010  0.06970  Biso   1.000  C
  O1       1.0000 0.63988  0.60042  0.62456  Biso   1.000  O
  O2       1.0000 0.36012  0.10042  0.37544  Biso   1.000  O
  O3       1.0000 0.98468  0.89958  0.62456  Biso   1.000  O
  O4       1.0000 0.01532  0.39958  0.37544  Biso   1.000  O
  O5       1.0000 0.36012  0.39958  0.37544  Biso   1.000  O
  O6       1.0000 0.63988  0.89958  0.62456  Biso   1.000  O
  O7       1.0000 0.01532  0.10042  0.37544  Biso   1.000  O
  O8       1.0000 0.98468  0.60042  0.62456  Biso   1.000  O
  O9       1.0000 0.50954  0.25000  0.62968  Biso   1.000  O
  O10      1.0000 0.49046  0.75000  0.37032  Biso   1.000  O
  O11      1.0000 0.12014  0.25000  0.62968  Biso   1.000  O
  O12      1.0000 0.87986  0.75000  0.37032  Biso   1.000  O
  O13      1.0000 0.76533  0.39010  0.53066  Biso   1.000  O
  O14      1.0000 0.23467  0.89010  0.46934  Biso   1.000  O
  O15      1.0000 0.76533  0.10990  0.53066  Biso   1.000  O
  O16      1.0000 0.23467  0.60990  0.46934  Biso   1.000  O
  O17      1.0000 0.34860  0.75000  0.69720  Biso   1.000  O
  O18      1.0000 0.65140  0.25000  0.30280  Biso   1.000  O
