data_image0
_cell_length_a       12.8597
_cell_length_b       15.1207
_cell_length_c       23.516
_cell_angle_alpha    90
_cell_angle_beta     90
_cell_angle_gamma    90

_symmetry_space_group_name_H-M    P 1
_symmetry_int_tables_number       1

loop_
  _symmetry_equiv_pos_as_xyz
  'x, y, z'

loop_
  _atom_site_label
  _atom_site_occupancy
  _atom_site_fract_x
  _atom_site_fract_y
  _atom_site_fract_z
  _atom_site_thermal_displace_type
  _atom_site_B_iso_or_equiv
  _atom_site_type_symbol
  Cd1      1.0000 0.36730  0.36013  0.38505  Biso   1.000  Cd
  Cd2      1.0000 0.25250  0.23267  0.50014  Biso   1.000  Cd
  Cd3      1.0000 0.86730  0.63987  0.61495  Biso   1.000  Cd
  Cd4      1.0000 0.75250  0.76733  0.49986  Biso   1.000  Cd
  Cd5      1.0000 0.36730  0.13987  0.88505  Biso   1.000  Cd
  Cd6      1.0000 0.25250  0.26733  0.00014  Biso   1.000  Cd
  Cd7      1.0000 0.86730  0.86013  0.11495  Biso   1.000  Cd
  Cd8      1.0000 0.75250  0.73267  0.99986  Biso   1.000  Cd
  H1       1.0000 0.03480  0.49980  0.49760  Biso   1.000  H
  H2       1.0000 0.94380  0.63170  0.36150  Biso   1.000  H
  H3       1.0000 0.12440  0.41640  0.33910  Biso   1.000  H
  H4       1.0000 0.95360  0.60740  0.19550  Biso   1.000  H
  H5       1.0000 0.99960  0.50820  0.03560  Biso   1.000  H
  H6       1.0000 0.11740  0.38710  0.16880  Biso   1.000  H
  H7       1.0000 0.34030  0.46190  0.27060  Biso   1.000  H
  H8       1.0000 0.41740  0.27210  0.21130  Biso   1.000  H
  H9       1.0000 0.40550  0.30120  0.14770  Biso   1.000  H
  H10      1.0000 0.30830  0.26800  0.18180  Biso   1.000  H
  H11      1.0000 0.41690  0.50710  0.17960  Biso   1.000  H
  H12      1.0000 0.31060  0.48960  0.14890  Biso   1.000  H
  H13      1.0000 0.41090  0.43910  0.12940  Biso   1.000  H
  H14      1.0000 0.60530  0.34180  0.41220  Biso   1.000  H
  H15      1.0000 0.77080  0.44180  0.47680  Biso   1.000  H
  H16      1.0000 0.84050  0.42370  0.42340  Biso   1.000  H
  H17      1.0000 0.76730  0.34930  0.44680  Biso   1.000  H
  H18      1.0000 0.67600  0.51740  0.33460  Biso   1.000  H
  H19      1.0000 0.77690  0.53690  0.36990  Biso   1.000  H
  H20      1.0000 0.66880  0.57130  0.39140  Biso   1.000  H
  H21      1.0000 0.43920  0.54140  0.41250  Biso   1.000  H
  H22      1.0000 0.50340  0.68250  0.42020  Biso   1.000  H
  H23      1.0000 0.41960  0.75620  0.42990  Biso   1.000  H
  H24      1.0000 0.46090  0.73690  0.36850  Biso   1.000  H
  H25      1.0000 0.26190  0.65260  0.32960  Biso   1.000  H
  H26      1.0000 0.25700  0.73810  0.36730  Biso   1.000  H
  H27      1.0000 0.20520  0.65030  0.38860  Biso   1.000  H
  H28      1.0000 0.53480  0.50020  0.50240  Biso   1.000  H
  H29      1.0000 0.44380  0.36830  0.63850  Biso   1.000  H
  H30      1.0000 0.62440  0.58360  0.66090  Biso   1.000  H
  H31      1.0000 0.45360  0.39260  0.80450  Biso   1.000  H
  H32      1.0000 0.49960  0.49180  0.96440  Biso   1.000  H
  H33      1.0000 0.61740  0.61290  0.83120  Biso   1.000  H
  H34      1.0000 0.84030  0.53810  0.72940  Biso   1.000  H
  H35      1.0000 0.91740  0.72790  0.78870  Biso   1.000  H
  H36      1.0000 0.90550  0.69880  0.85230  Biso   1.000  H
  H37      1.0000 0.80830  0.73200  0.81820  Biso   1.000  H
  H38      1.0000 0.91690  0.49290  0.82040  Biso   1.000  H
  H39      1.0000 0.81060  0.51040  0.85110  Biso   1.000  H
  H40      1.0000 0.91090  0.56090  0.87060  Biso   1.000  H
  H41      1.0000 0.10530  0.65820  0.58780  Biso   1.000  H
  H42      1.0000 0.27080  0.55820  0.52320  Biso   1.000  H
  H43      1.0000 0.34050  0.57630  0.57660  Biso   1.000  H
  H44      1.0000 0.26730  0.65070  0.55320  Biso   1.000  H
  H45      1.0000 0.17600  0.48260  0.66540  Biso   1.000  H
  H46      1.0000 0.27690  0.46310  0.63010  Biso   1.000  H
  H47      1.0000 0.16880  0.42870  0.60860  Biso   1.000  H
  H48      1.0000 0.93920  0.45860  0.58750  Biso   1.000  H
  H49      1.0000 0.00340  0.31750  0.57980  Biso   1.000  H
  H50      1.0000 0.91960  0.24380  0.57010  Biso   1.000  H
  H51      1.0000 0.96090  0.26310  0.63150  Biso   1.000  H
  H52      1.0000 0.76190  0.34740  0.67040  Biso   1.000  H
  H53      1.0000 0.75700  0.26190  0.63270  Biso   1.000  H
  H54      1.0000 0.70520  0.34970  0.61140  Biso   1.000  H
  H55      1.0000 0.03480  0.00020  0.99760  Biso   1.000  H
  H56      1.0000 0.94380  0.86830  0.86150  Biso   1.000  H
  H57      1.0000 0.12440  0.08360  0.83910  Biso   1.000  H
  H58      1.0000 0.95360  0.89260  0.69550  Biso   1.000  H
  H59      1.0000 0.99960  0.99180  0.53560  Biso   1.000  H
  H60      1.0000 0.11740  0.11290  0.66880  Biso   1.000  H
  H61      1.0000 0.34030  0.03810  0.77060  Biso   1.000  H
  H62      1.0000 0.41740  0.22790  0.71130  Biso   1.000  H
  H63      1.0000 0.40550  0.19880  0.64770  Biso   1.000  H
  H64      1.0000 0.30830  0.23200  0.68180  Biso   1.000  H
  H65      1.0000 0.41690  0.99290  0.67960  Biso   1.000  H
  H66      1.0000 0.31060  0.01040  0.64890  Biso   1.000  H
  H67      1.0000 0.41090  0.06090  0.62940  Biso   1.000  H
  H68      1.0000 0.60530  0.15820  0.91220  Biso   1.000  H
  H69      1.0000 0.77080  0.05820  0.97680  Biso   1.000  H
  H70      1.0000 0.84050  0.07630  0.92340  Biso   1.000  H
  H71      1.0000 0.76730  0.15070  0.94680  Biso   1.000  H
  H72      1.0000 0.67600  0.98260  0.83460  Biso   1.000  H
  H73      1.0000 0.77690  0.96310  0.86990  Biso   1.000  H
  H74      1.0000 0.66880  0.92870  0.89140  Biso   1.000  H
  H75      1.0000 0.43920  0.95860  0.91250  Biso   1.000  H
  H76      1.0000 0.50340  0.81750  0.92020  Biso   1.000  H
  H77      1.0000 0.41960  0.74380  0.92990  Biso   1.000  H
  H78      1.0000 0.46090  0.76310  0.86850  Biso   1.000  H
  H79      1.0000 0.26190  0.84740  0.82960  Biso   1.000  H
  H80      1.0000 0.25700  0.76190  0.86730  Biso   1.000  H
  H81      1.0000 0.20520  0.84970  0.88860  Biso   1.000  H
  H82      1.0000 0.53480  0.99980  0.00240  Biso   1.000  H
  H83      1.0000 0.44380  0.13170  0.13850  Biso   1.000  H
  H84      1.0000 0.62440  0.91640  0.16090  Biso   1.000  H
  H85      1.0000 0.45360  0.10740  0.30450  Biso   1.000  H
  H86      1.0000 0.49960  0.00820  0.46440  Biso   1.000  H
  H87      1.0000 0.61740  0.88710  0.33120  Biso   1.000  H
  H88      1.0000 0.84030  0.96190  0.22940  Biso   1.000  H
  H89      1.0000 0.91740  0.77210  0.28870  Biso   1.000  H
  H90      1.0000 0.90550  0.80120  0.35230  Biso   1.000  H
  H91      1.0000 0.80830  0.76800  0.31820  Biso   1.000  H
  H92      1.0000 0.91690  0.00710  0.32040  Biso   1.000  H
  H93      1.0000 0.81060  0.98960  0.35110  Biso   1.000  H
  H94      1.0000 0.91090  0.93910  0.37060  Biso   1.000  H
  H95      1.0000 0.10530  0.84180  0.08780  Biso   1.000  H
  H96      1.0000 0.27080  0.94180  0.02320  Biso   1.000  H
  H97      1.0000 0.34050  0.92370  0.07660  Biso   1.000  H
  H98      1.0000 0.26730  0.84930  0.05320  Biso   1.000  H
  H99      1.0000 0.17600  0.01740  0.16540  Biso   1.000  H
  H100     1.0000 0.27690  0.03690  0.13010  Biso   1.000  H
  H101     1.0000 0.16880  0.07130  0.10860  Biso   1.000  H
  H102     1.0000 0.93920  0.04140  0.08750  Biso   1.000  H
  H103     1.0000 0.00340  0.18250  0.07980  Biso   1.000  H
  H104     1.0000 0.91960  0.25620  0.07010  Biso   1.000  H
  H105     1.0000 0.96090  0.23690  0.13150  Biso   1.000  H
  H106     1.0000 0.76190  0.15260  0.17040  Biso   1.000  H
  H107     1.0000 0.75700  0.23810  0.13270  Biso   1.000  H
  H108     1.0000 0.70520  0.15030  0.11140  Biso   1.000  H
  C1       1.0000 0.14690  0.37120  0.44990  Biso   1.000  C
  C2       1.0000 0.09080  0.44370  0.42270  Biso   1.000  C
  C3       1.0000 0.03400  0.50620  0.45830  Biso   1.000  C
  C4       1.0000 0.98120  0.57180  0.43480  Biso   1.000  C
  C5       1.0000 0.92140  0.63370  0.47190  Biso   1.000  C
  C6       1.0000 0.97830  0.58310  0.37680  Biso   1.000  C
  C7       1.0000 0.02680  0.52230  0.34040  Biso   1.000  C
  C8       1.0000 0.08730  0.45410  0.36280  Biso   1.000  C
  C9       1.0000 0.03790  0.49460  0.19250  Biso   1.000  C
  C10      1.0000 0.98160  0.56580  0.17080  Biso   1.000  C
  C11      1.0000 0.96630  0.57560  0.11040  Biso   1.000  C
  C12      1.0000 0.90650  0.64920  0.08660  Biso   1.000  C
  C13      1.0000 0.01100  0.50590  0.07460  Biso   1.000  C
  C14      1.0000 0.06770  0.43900  0.09560  Biso   1.000  C
  C15      1.0000 0.12800  0.37460  0.05730  Biso   1.000  C
  C16      1.0000 0.07930  0.43410  0.15410  Biso   1.000  C
  C17      1.0000 0.33950  0.40340  0.25830  Biso   1.000  C
  C18      1.0000 0.37200  0.30030  0.18420  Biso   1.000  C
  C19      1.0000 0.37400  0.46310  0.16150  Biso   1.000  C
  C20      1.0000 0.60570  0.39580  0.39320  Biso   1.000  C
  C21      1.0000 0.77460  0.41180  0.44090  Biso   1.000  C
  C22      1.0000 0.70390  0.52390  0.37230  Biso   1.000  C
  C23      1.0000 0.37660  0.56040  0.39700  Biso   1.000  C
  C24      1.0000 0.44320  0.71090  0.40440  Biso   1.000  C
  C25      1.0000 0.26300  0.67480  0.36790  Biso   1.000  C
  C26      1.0000 0.64690  0.62880  0.55010  Biso   1.000  C
  C27      1.0000 0.59080  0.55630  0.57730  Biso   1.000  C
  C28      1.0000 0.53400  0.49380  0.54170  Biso   1.000  C
  C29      1.0000 0.48120  0.42820  0.56520  Biso   1.000  C
  C30      1.0000 0.42140  0.36630  0.52810  Biso   1.000  C
  C31      1.0000 0.47830  0.41690  0.62320  Biso   1.000  C
  C32      1.0000 0.52680  0.47770  0.65960  Biso   1.000  C
  C33      1.0000 0.58730  0.54590  0.63720  Biso   1.000  C
  C34      1.0000 0.53790  0.50540  0.80750  Biso   1.000  C
  C35      1.0000 0.48160  0.43420  0.82920  Biso   1.000  C
  C36      1.0000 0.46630  0.42440  0.88960  Biso   1.000  C
  C37      1.0000 0.40650  0.35080  0.91340  Biso   1.000  C
  C38      1.0000 0.51100  0.49410  0.92540  Biso   1.000  C
  C39      1.0000 0.56770  0.56100  0.90440  Biso   1.000  C
  C40      1.0000 0.62800  0.62540  0.94270  Biso   1.000  C
  C41      1.0000 0.57930  0.56590  0.84590  Biso   1.000  C
  C42      1.0000 0.83950  0.59660  0.74170  Biso   1.000  C
  C43      1.0000 0.87200  0.69970  0.81580  Biso   1.000  C
  C44      1.0000 0.87400  0.53690  0.83850  Biso   1.000  C
  C45      1.0000 0.10570  0.60420  0.60680  Biso   1.000  C
  C46      1.0000 0.27460  0.58820  0.55910  Biso   1.000  C
  C47      1.0000 0.20390  0.47610  0.62770  Biso   1.000  C
  C48      1.0000 0.87660  0.43960  0.60300  Biso   1.000  C
  C49      1.0000 0.94320  0.28910  0.59560  Biso   1.000  C
  C50      1.0000 0.76300  0.32520  0.63210  Biso   1.000  C
  C51      1.0000 0.14690  0.12880  0.94990  Biso   1.000  C
  C52      1.0000 0.09080  0.05630  0.92270  Biso   1.000  C
  C53      1.0000 0.03400  0.99380  0.95830  Biso   1.000  C
  C54      1.0000 0.98120  0.92820  0.93480  Biso   1.000  C
  C55      1.0000 0.92140  0.86630  0.97190  Biso   1.000  C
  C56      1.0000 0.97830  0.91690  0.87680  Biso   1.000  C
  C57      1.0000 0.02680  0.97770  0.84040  Biso   1.000  C
  C58      1.0000 0.08730  0.04590  0.86280  Biso   1.000  C
  C59      1.0000 0.03790  0.00540  0.69250  Biso   1.000  C
  C60      1.0000 0.98160  0.93420  0.67080  Biso   1.000  C
  C61      1.0000 0.96630  0.92440  0.61040  Biso   1.000  C
  C62      1.0000 0.90650  0.85080  0.58660  Biso   1.000  C
  C63      1.0000 0.01100  0.99410  0.57460  Biso   1.000  C
  C64      1.0000 0.06770  0.06100  0.59560  Biso   1.000  C
  C65      1.0000 0.12800  0.12540  0.55730  Biso   1.000  C
  C66      1.0000 0.07930  0.06590  0.65410  Biso   1.000  C
  C67      1.0000 0.33950  0.09660  0.75830  Biso   1.000  C
  C68      1.0000 0.37200  0.19970  0.68420  Biso   1.000  C
  C69      1.0000 0.37400  0.03690  0.66150  Biso   1.000  C
  C70      1.0000 0.60570  0.10420  0.89320  Biso   1.000  C
  C71      1.0000 0.77460  0.08820  0.94090  Biso   1.000  C
  C72      1.0000 0.70390  0.97610  0.87230  Biso   1.000  C
  C73      1.0000 0.37660  0.93960  0.89700  Biso   1.000  C
  C74      1.0000 0.44320  0.78910  0.90440  Biso   1.000  C
  C75      1.0000 0.26300  0.82520  0.86790  Biso   1.000  C
  C76      1.0000 0.64690  0.87120  0.05010  Biso   1.000  C
  C77      1.0000 0.59080  0.94370  0.07730  Biso   1.000  C
  C78      1.0000 0.53400  0.00620  0.04170  Biso   1.000  C
  C79      1.0000 0.48120  0.07180  0.06520  Biso   1.000  C
  C80      1.0000 0.42140  0.13370  0.02810  Biso   1.000  C
  C81      1.0000 0.47830  0.08310  0.12320  Biso   1.000  C
  C82      1.0000 0.52680  0.02230  0.15960  Biso   1.000  C
  C83      1.0000 0.58730  0.95410  0.13720  Biso   1.000  C
  C84      1.0000 0.53790  0.99460  0.30750  Biso   1.000  C
  C85      1.0000 0.48160  0.06580  0.32920  Biso   1.000  C
  C86      1.0000 0.46630  0.07560  0.38960  Biso   1.000  C
  C87      1.0000 0.40650  0.14920  0.41340  Biso   1.000  C
  C88      1.0000 0.51100  0.00590  0.42540  Biso   1.000  C
  C89      1.0000 0.56770  0.93900  0.40440  Biso   1.000  C
  C90      1.0000 0.62800  0.87460  0.44270  Biso   1.000  C
  C91      1.0000 0.57930  0.93410  0.34590  Biso   1.000  C
  C92      1.0000 0.83950  0.90340  0.24170  Biso   1.000  C
  C93      1.0000 0.87200  0.80030  0.31580  Biso   1.000  C
  C94      1.0000 0.87400  0.96310  0.33850  Biso   1.000  C
  C95      1.0000 0.10570  0.89580  0.10680  Biso   1.000  C
  C96      1.0000 0.27460  0.91180  0.05910  Biso   1.000  C
  C97      1.0000 0.20390  0.02390  0.12770  Biso   1.000  C
  C98      1.0000 0.87660  0.06040  0.10300  Biso   1.000  C
  C99      1.0000 0.94320  0.21090  0.09560  Biso   1.000  C
  C100     1.0000 0.76300  0.17480  0.13210  Biso   1.000  C
  N1       1.0000 0.01510  0.53680  0.28090  Biso   1.000  N
  N2       1.0000 0.05350  0.48190  0.25030  Biso   1.000  N
  N3       1.0000 0.35110  0.39130  0.20260  Biso   1.000  N
  N4       1.0000 0.68920  0.44380  0.40310  Biso   1.000  N
  N5       1.0000 0.36410  0.64840  0.39670  Biso   1.000  N
  N6       1.0000 0.51510  0.46320  0.71910  Biso   1.000  N
  N7       1.0000 0.55350  0.51810  0.74970  Biso   1.000  N
  N8       1.0000 0.85110  0.60870  0.79740  Biso   1.000  N
  N9       1.0000 0.18920  0.55620  0.59690  Biso   1.000  N
  N10      1.0000 0.86410  0.35160  0.60330  Biso   1.000  N
  N11      1.0000 0.01510  0.96320  0.78090  Biso   1.000  N
  N12      1.0000 0.05350  0.01810  0.75030  Biso   1.000  N
  N13      1.0000 0.35110  0.10870  0.70260  Biso   1.000  N
  N14      1.0000 0.68920  0.05620  0.90310  Biso   1.000  N
  N15      1.0000 0.36410  0.85160  0.89670  Biso   1.000  N
  N16      1.0000 0.51510  0.03680  0.21910  Biso   1.000  N
  N17      1.0000 0.55350  0.98190  0.24970  Biso   1.000  N
  N18      1.0000 0.85110  0.89130  0.29740  Biso   1.000  N
  N19      1.0000 0.18920  0.94380  0.09690  Biso   1.000  N
  N20      1.0000 0.86410  0.14840  0.10330  Biso   1.000  N
  O1       1.0000 0.13790  0.35740  0.50160  Biso   1.000  O
  O2       1.0000 0.20670  0.32200  0.41910  Biso   1.000  O
  O3       1.0000 0.91610  0.61500  0.52300  Biso   1.000  O
  O4       1.0000 0.87320  0.69700  0.44980  Biso   1.000  O
  O5       1.0000 0.90850  0.71600  0.11680  Biso   1.000  O
  O6       1.0000 0.86250  0.64040  0.03980  Biso   1.000  O
  O7       1.0000 0.19130  0.32910  0.07860  Biso   1.000  O
  O8       1.0000 0.10560  0.37490  0.00850  Biso   1.000  O
  O9       1.0000 0.32850  0.35050  0.29350  Biso   1.000  O
  O10      1.0000 0.52900  0.40830  0.36410  Biso   1.000  O
  O11      1.0000 0.32370  0.50440  0.38140  Biso   1.000  O
  O12      1.0000 0.63790  0.64260  0.49840  Biso   1.000  O
  O13      1.0000 0.70670  0.67800  0.58090  Biso   1.000  O
  O14      1.0000 0.41610  0.38500  0.47700  Biso   1.000  O
  O15      1.0000 0.37320  0.30300  0.55020  Biso   1.000  O
  O16      1.0000 0.40850  0.28400  0.88320  Biso   1.000  O
  O17      1.0000 0.36250  0.35960  0.96020  Biso   1.000  O
  O18      1.0000 0.69130  0.67090  0.92140  Biso   1.000  O
  O19      1.0000 0.60560  0.62510  0.99150  Biso   1.000  O
  O20      1.0000 0.82850  0.64950  0.70650  Biso   1.000  O
  O21      1.0000 0.02900  0.59170  0.63590  Biso   1.000  O
  O22      1.0000 0.82370  0.49560  0.61860  Biso   1.000  O
  O23      1.0000 0.13790  0.14260  0.00160  Biso   1.000  O
  O24      1.0000 0.20670  0.17800  0.91910  Biso   1.000  O
  O25      1.0000 0.91610  0.88500  0.02300  Biso   1.000  O
  O26      1.0000 0.87320  0.80300  0.94980  Biso   1.000  O
  O27      1.0000 0.90850  0.78400  0.61680  Biso   1.000  O
  O28      1.0000 0.86250  0.85960  0.53980  Biso   1.000  O
  O29      1.0000 0.19130  0.17090  0.57860  Biso   1.000  O
  O30      1.0000 0.10560  0.12510  0.50850  Biso   1.000  O
  O31      1.0000 0.32850  0.14950  0.79350  Biso   1.000  O
  O32      1.0000 0.52900  0.09170  0.86410  Biso   1.000  O
  O33      1.0000 0.32370  0.99560  0.88140  Biso   1.000  O
  O34      1.0000 0.63790  0.85740  0.99840  Biso   1.000  O
  O35      1.0000 0.70670  0.82200  0.08090  Biso   1.000  O
  O36      1.0000 0.41610  0.11500  0.97700  Biso   1.000  O
  O37      1.0000 0.37320  0.19700  0.05020  Biso   1.000  O
  O38      1.0000 0.40850  0.21600  0.38320  Biso   1.000  O
  O39      1.0000 0.36250  0.14040  0.46020  Biso   1.000  O
  O40      1.0000 0.69130  0.82910  0.42140  Biso   1.000  O
  O41      1.0000 0.60560  0.87490  0.49150  Biso   1.000  O
  O42      1.0000 0.82850  0.85050  0.20650  Biso   1.000  O
  O43      1.0000 0.02900  0.90830  0.13590  Biso   1.000  O
  O44      1.0000 0.82370  0.00440  0.11860  Biso   1.000  O
