data_image0
_cell_length_a       7.2112
_cell_length_b       14.4643
_cell_length_c       15.5891
_cell_angle_alpha    117.641
_cell_angle_beta     97.9136
_cell_angle_gamma    90

_symmetry_space_group_name_H-M    P 1
_symmetry_int_tables_number       1

loop_
  _symmetry_equiv_pos_as_xyz
  'x, y, z'

loop_
  _atom_site_label
  _atom_site_occupancy
  _atom_site_fract_x
  _atom_site_fract_y
  _atom_site_fract_z
  _atom_site_thermal_displace_type
  _atom_site_B_iso_or_equiv
  _atom_site_type_symbol
  Cd1      1.0000 0.25000  0.05975  0.00000  Biso   1.000  Cd
  Cd2      1.0000 0.75000  0.94025  0.00000  Biso   1.000  Cd
  Cu1      1.0000 0.50000  0.00000  0.50000  Biso   1.000  Cu
  Cu2      1.0000 0.00000  0.50000  0.50000  Biso   1.000  Cu
  H1       1.0000 0.48430  0.65390  0.34560  Biso   1.000  H
  H2       1.0000 0.53660  0.53820  0.40600  Biso   1.000  H
  H3       1.0000 0.62710  0.59400  0.57000  Biso   1.000  H
  H4       1.0000 0.68010  0.77110  0.67640  Biso   1.000  H
  H5       1.0000 0.68530  0.94610  0.70980  Biso   1.000  H
  H6       1.0000 0.74450  0.11020  0.76500  Biso   1.000  H
  H7       1.0000 0.66660  0.16800  0.70520  Biso   1.000  H
  H8       1.0000 0.32950  0.21000  0.70200  Biso   1.000  H
  H9       1.0000 0.07180  0.24360  0.78440  Biso   1.000  H
  H10      1.0000 0.06500  0.19540  0.90440  Biso   1.000  H
  H11      1.0000 0.55050  0.07760  0.86280  Biso   1.000  H
  H12      1.0000 0.01570  0.30830  0.65440  Biso   1.000  H
  H13      1.0000 0.96340  0.13220  0.59400  Biso   1.000  H
  H14      1.0000 0.87290  0.02400  0.43000  Biso   1.000  H
  H15      1.0000 0.81990  0.09470  0.32360  Biso   1.000  H
  H16      1.0000 0.81470  0.23630  0.29020  Biso   1.000  H
  H17      1.0000 0.75550  0.34520  0.23500  Biso   1.000  H
  H18      1.0000 0.83340  0.46280  0.29480  Biso   1.000  H
  H19      1.0000 0.17050  0.50800  0.29800  Biso   1.000  H
  H20      1.0000 0.42820  0.45920  0.21560  Biso   1.000  H
  H21      1.0000 0.43500  0.29100  0.09560  Biso   1.000  H
  H22      1.0000 0.94950  0.21480  0.13720  Biso   1.000  H
  H23      1.0000 0.51570  0.34610  0.65440  Biso   1.000  H
  H24      1.0000 0.46340  0.46180  0.59400  Biso   1.000  H
  H25      1.0000 0.37290  0.40600  0.43000  Biso   1.000  H
  H26      1.0000 0.31990  0.22890  0.32360  Biso   1.000  H
  H27      1.0000 0.31470  0.05390  0.29020  Biso   1.000  H
  H28      1.0000 0.25550  0.88980  0.23500  Biso   1.000  H
  H29      1.0000 0.33340  0.83200  0.29480  Biso   1.000  H
  H30      1.0000 0.67050  0.79000  0.29800  Biso   1.000  H
  H31      1.0000 0.92820  0.75640  0.21560  Biso   1.000  H
  H32      1.0000 0.93500  0.80460  0.09560  Biso   1.000  H
  H33      1.0000 0.44950  0.92240  0.13720  Biso   1.000  H
  H34      1.0000 0.98430  0.69170  0.34560  Biso   1.000  H
  H35      1.0000 0.03660  0.86780  0.40600  Biso   1.000  H
  H36      1.0000 0.12710  0.97600  0.57000  Biso   1.000  H
  H37      1.0000 0.18010  0.90530  0.67640  Biso   1.000  H
  H38      1.0000 0.18530  0.76370  0.70980  Biso   1.000  H
  H39      1.0000 0.24450  0.65480  0.76500  Biso   1.000  H
  H40      1.0000 0.16660  0.53720  0.70520  Biso   1.000  H
  H41      1.0000 0.82950  0.49200  0.70200  Biso   1.000  H
  H42      1.0000 0.57180  0.54080  0.78440  Biso   1.000  H
  H43      1.0000 0.56500  0.70900  0.90440  Biso   1.000  H
  H44      1.0000 0.05050  0.78520  0.86280  Biso   1.000  H
  C1       1.0000 0.54630  0.78894  0.47428  Biso   1.000  C
  C2       1.0000 0.52240  0.67930  0.41260  Biso   1.000  C
  C3       1.0000 0.55370  0.60950  0.44880  Biso   1.000  C
  C4       1.0000 0.60930  0.64240  0.54640  Biso   1.000  C
  C5       1.0000 0.63910  0.74870  0.61020  Biso   1.000  C
  C6       1.0000 0.60850  0.82403  0.57646  Biso   1.000  C
  C7       1.0000 0.63650  0.93118  0.64596  Biso   1.000  C
  C8       1.0000 0.63710  0.11339  0.72178  Biso   1.000  C
  C9       1.0000 0.46870  0.14010  0.77420  Biso   1.000  C
  C10      1.0000 0.32450  0.18997  0.75034  Biso   1.000  C
  C11      1.0000 0.17110  0.21001  0.79962  Biso   1.000  C
  C12      1.0000 0.16730  0.18009  0.87078  Biso   1.000  C
  C13      1.0000 0.45300  0.11139  0.84638  Biso   1.000  C
  C14      1.0000 0.95370  0.31466  0.52572  Biso   1.000  C
  C15      1.0000 0.97760  0.26670  0.58740  Biso   1.000  C
  C16      1.0000 0.94630  0.16070  0.55120  Biso   1.000  C
  C17      1.0000 0.89070  0.09600  0.45360  Biso   1.000  C
  C18      1.0000 0.86090  0.13850  0.38980  Biso   1.000  C
  C19      1.0000 0.89150  0.24757  0.42354  Biso   1.000  C
  C20      1.0000 0.86350  0.28522  0.35404  Biso   1.000  C
  C21      1.0000 0.86290  0.39161  0.27822  Biso   1.000  C
  C22      1.0000 0.03130  0.36590  0.22580  Biso   1.000  C
  C23      1.0000 0.17550  0.43963  0.24966  Biso   1.000  C
  C24      1.0000 0.32890  0.41039  0.20038  Biso   1.000  C
  C25      1.0000 0.33270  0.30931  0.12922  Biso   1.000  C
  C26      1.0000 0.04700  0.26501  0.15362  Biso   1.000  C
  C27      1.0000 0.45370  0.21106  0.52572  Biso   1.000  C
  C28      1.0000 0.47760  0.32070  0.58740  Biso   1.000  C
  C29      1.0000 0.44630  0.39050  0.55120  Biso   1.000  C
  C30      1.0000 0.39070  0.35760  0.45360  Biso   1.000  C
  C31      1.0000 0.36090  0.25130  0.38980  Biso   1.000  C
  C32      1.0000 0.39150  0.17597  0.42354  Biso   1.000  C
  C33      1.0000 0.36350  0.06882  0.35404  Biso   1.000  C
  C34      1.0000 0.36290  0.88661  0.27822  Biso   1.000  C
  C35      1.0000 0.53130  0.85990  0.22580  Biso   1.000  C
  C36      1.0000 0.67550  0.81003  0.24966  Biso   1.000  C
  C37      1.0000 0.82890  0.78999  0.20038  Biso   1.000  C
  C38      1.0000 0.83270  0.81991  0.12922  Biso   1.000  C
  C39      1.0000 0.54700  0.88861  0.15362  Biso   1.000  C
  C40      1.0000 0.04630  0.68534  0.47428  Biso   1.000  C
  C41      1.0000 0.02240  0.73330  0.41260  Biso   1.000  C
  C42      1.0000 0.05370  0.83930  0.44880  Biso   1.000  C
  C43      1.0000 0.10930  0.90400  0.54640  Biso   1.000  C
  C44      1.0000 0.13910  0.86150  0.61020  Biso   1.000  C
  C45      1.0000 0.10850  0.75243  0.57646  Biso   1.000  C
  C46      1.0000 0.13650  0.71478  0.64596  Biso   1.000  C
  C47      1.0000 0.13710  0.60839  0.72178  Biso   1.000  C
  C48      1.0000 0.96870  0.63410  0.77420  Biso   1.000  C
  C49      1.0000 0.82450  0.56037  0.75034  Biso   1.000  C
  C50      1.0000 0.67110  0.58961  0.79962  Biso   1.000  C
  C51      1.0000 0.66730  0.69069  0.87078  Biso   1.000  C
  C52      1.0000 0.95300  0.73499  0.84638  Biso   1.000  C
  N1       1.0000 0.60180  0.01166  0.63112  Biso   1.000  N
  N2       1.0000 0.30370  0.12987  0.89394  Biso   1.000  N
  N3       1.0000 0.89820  0.38054  0.36888  Biso   1.000  N
  N4       1.0000 0.19630  0.23593  0.10606  Biso   1.000  N
  N5       1.0000 0.39820  0.98834  0.36888  Biso   1.000  N
  N6       1.0000 0.69630  0.87013  0.10606  Biso   1.000  N
  N7       1.0000 0.10180  0.61946  0.63112  Biso   1.000  N
  N8       1.0000 0.80370  0.76407  0.89394  Biso   1.000  N
  Cl1      1.0000 0.09531  0.99666  0.10590  Biso   1.000  Cl
  Cl2      1.0000 0.40469  0.89076  0.89410  Biso   1.000  Cl
  Cl3      1.0000 0.90469  0.00334  0.89410  Biso   1.000  Cl
  Cl4      1.0000 0.59531  0.10924  0.10590  Biso   1.000  Cl
  O1       1.0000 0.51590  0.85349  0.43778  Biso   1.000  O
  O2       1.0000 0.98410  0.41571  0.56222  Biso   1.000  O
  O3       1.0000 0.48410  0.14651  0.56222  Biso   1.000  O
  O4       1.0000 0.01590  0.58429  0.43778  Biso   1.000  O
