data_image0
_cell_length_a       10.673
_cell_length_b       12.1006
_cell_length_c       12.1006
_cell_angle_alpha    96.1065
_cell_angle_beta     104.571
_cell_angle_gamma    75.4292

_symmetry_space_group_name_H-M    P 1
_symmetry_int_tables_number       1

loop_
  _symmetry_equiv_pos_as_xyz
  'x, y, z'

loop_
  _atom_site_label
  _atom_site_occupancy
  _atom_site_fract_x
  _atom_site_fract_y
  _atom_site_fract_z
  _atom_site_thermal_displace_type
  _atom_site_B_iso_or_equiv
  _atom_site_type_symbol
  Zn1      1.0000 0.25000  0.11388  0.11388  Biso   1.000  Zn
  Zn2      1.0000 0.75000  0.88612  0.88612  Biso   1.000  Zn
  Zn3      1.0000 0.00000  0.00000  0.00000  Biso   1.000  Zn
  Zn4      1.0000 0.50000  0.00000  0.00000  Biso   1.000  Zn
  H1       1.0000 0.91080  0.18460  0.81520  Biso   1.000  H
  H2       1.0000 0.77360  0.21200  0.63980  Biso   1.000  H
  H3       1.0000 0.23220  0.09270  0.67810  Biso   1.000  H
  H4       1.0000 0.19820  0.09910  0.46530  Biso   1.000  H
  H5       1.0000 0.82710  0.15710  0.26850  Biso   1.000  H
  H6       1.0000 0.73790  0.19870  0.42690  Biso   1.000  H
  H7       1.0000 0.58920  0.81520  0.18460  Biso   1.000  H
  H8       1.0000 0.72640  0.63980  0.21200  Biso   1.000  H
  H9       1.0000 0.26780  0.67810  0.09270  Biso   1.000  H
  H10      1.0000 0.30180  0.46530  0.09910  Biso   1.000  H
  H11      1.0000 0.67290  0.26850  0.15710  Biso   1.000  H
  H12      1.0000 0.76210  0.42690  0.19870  Biso   1.000  H
  H13      1.0000 0.08920  0.81540  0.18480  Biso   1.000  H
  H14      1.0000 0.22640  0.78800  0.36020  Biso   1.000  H
  H15      1.0000 0.76780  0.90730  0.32190  Biso   1.000  H
  H16      1.0000 0.80180  0.90090  0.53470  Biso   1.000  H
  H17      1.0000 0.17290  0.84290  0.73150  Biso   1.000  H
  H18      1.0000 0.26210  0.80130  0.57310  Biso   1.000  H
  H19      1.0000 0.41080  0.18480  0.81540  Biso   1.000  H
  H20      1.0000 0.27360  0.36020  0.78800  Biso   1.000  H
  H21      1.0000 0.73220  0.32190  0.90730  Biso   1.000  H
  H22      1.0000 0.69820  0.53470  0.90090  Biso   1.000  H
  H23      1.0000 0.32710  0.73150  0.84290  Biso   1.000  H
  H24      1.0000 0.23790  0.57310  0.80130  Biso   1.000  H
  C1       1.0000 0.17940  0.10390  0.87950  Biso   1.000  C
  C2       1.0000 0.08870  0.13150  0.76370  Biso   1.000  C
  C3       1.0000 0.94670  0.17070  0.75030  Biso   1.000  C
  C4       1.0000 0.86600  0.18760  0.64680  Biso   1.000  C
  C5       1.0000 0.91710  0.16960  0.54700  Biso   1.000  C
  C6       1.0000 0.05510  0.13640  0.55800  Biso   1.000  C
  C7       1.0000 0.13950  0.11650  0.66970  Biso   1.000  C
  C8       1.0000 0.10570  0.11950  0.45830  Biso   1.000  C
  C9       1.0000 0.07290  0.11200  0.24540  Biso   1.000  C
  C10      1.0000 0.02300  0.13200  0.35320  Biso   1.000  C
  C11      1.0000 0.88400  0.15610  0.34190  Biso   1.000  C
  C12      1.0000 0.83070  0.17810  0.43570  Biso   1.000  C
  C13      1.0000 0.32060  0.87950  0.10390  Biso   1.000  C
  C14      1.0000 0.41130  0.76370  0.13150  Biso   1.000  C
  C15      1.0000 0.55330  0.75030  0.17070  Biso   1.000  C
  C16      1.0000 0.63400  0.64680  0.18760  Biso   1.000  C
  C17      1.0000 0.58290  0.54700  0.16960  Biso   1.000  C
  C18      1.0000 0.44490  0.55800  0.13640  Biso   1.000  C
  C19      1.0000 0.36050  0.66970  0.11650  Biso   1.000  C
  C20      1.0000 0.39430  0.45830  0.11950  Biso   1.000  C
  C21      1.0000 0.42710  0.24540  0.11200  Biso   1.000  C
  C22      1.0000 0.47700  0.35320  0.13200  Biso   1.000  C
  C23      1.0000 0.61600  0.34190  0.15610  Biso   1.000  C
  C24      1.0000 0.66930  0.43570  0.17810  Biso   1.000  C
  C25      1.0000 0.82060  0.89610  0.12050  Biso   1.000  C
  C26      1.0000 0.91130  0.86850  0.23630  Biso   1.000  C
  C27      1.0000 0.05330  0.82930  0.24970  Biso   1.000  C
  C28      1.0000 0.13400  0.81240  0.35320  Biso   1.000  C
  C29      1.0000 0.08290  0.83040  0.45300  Biso   1.000  C
  C30      1.0000 0.94490  0.86360  0.44200  Biso   1.000  C
  C31      1.0000 0.86050  0.88350  0.33030  Biso   1.000  C
  C32      1.0000 0.89430  0.88050  0.54170  Biso   1.000  C
  C33      1.0000 0.92710  0.88800  0.75460  Biso   1.000  C
  C34      1.0000 0.97700  0.86800  0.64680  Biso   1.000  C
  C35      1.0000 0.11600  0.84390  0.65810  Biso   1.000  C
  C36      1.0000 0.16930  0.82190  0.56430  Biso   1.000  C
  C37      1.0000 0.67940  0.12050  0.89610  Biso   1.000  C
  C38      1.0000 0.58870  0.23630  0.86850  Biso   1.000  C
  C39      1.0000 0.44670  0.24970  0.82930  Biso   1.000  C
  C40      1.0000 0.36600  0.35320  0.81240  Biso   1.000  C
  C41      1.0000 0.41710  0.45300  0.83040  Biso   1.000  C
  C42      1.0000 0.55510  0.44200  0.86360  Biso   1.000  C
  C43      1.0000 0.63950  0.33030  0.88350  Biso   1.000  C
  C44      1.0000 0.60570  0.54170  0.88050  Biso   1.000  C
  C45      1.0000 0.57290  0.75460  0.88800  Biso   1.000  C
  C46      1.0000 0.52300  0.64680  0.86800  Biso   1.000  C
  C47      1.0000 0.38400  0.65810  0.84390  Biso   1.000  C
  C48      1.0000 0.33070  0.56430  0.82190  Biso   1.000  C
  O1       1.0000 0.12030  0.11610  0.96350  Biso   1.000  O
  O2       1.0000 0.18780  0.12100  0.25420  Biso   1.000  O
  O3       1.0000 0.99240  0.09040  0.15300  Biso   1.000  O
  O4       1.0000 0.30070  0.07490  0.89010  Biso   1.000  O
  O5       1.0000 0.37970  0.96350  0.11610  Biso   1.000  O
  O6       1.0000 0.31220  0.25420  0.12100  Biso   1.000  O
  O7       1.0000 0.50760  0.15300  0.09040  Biso   1.000  O
  O8       1.0000 0.19930  0.89010  0.07490  Biso   1.000  O
  O9       1.0000 0.87970  0.88390  0.03650  Biso   1.000  O
  O10      1.0000 0.81220  0.87900  0.74580  Biso   1.000  O
  O11      1.0000 0.00760  0.90960  0.84700  Biso   1.000  O
  O12      1.0000 0.69930  0.92510  0.10990  Biso   1.000  O
  O13      1.0000 0.62030  0.03650  0.88390  Biso   1.000  O
  O14      1.0000 0.68780  0.74580  0.87900  Biso   1.000  O
  O15      1.0000 0.49240  0.84700  0.90960  Biso   1.000  O
  O16      1.0000 0.80070  0.10990  0.92510  Biso   1.000  O
