data_image0
_cell_length_a       25.865
_cell_length_b       25.865
_cell_length_c       6.911
_cell_angle_alpha    90
_cell_angle_beta     90
_cell_angle_gamma    120

_symmetry_space_group_name_H-M    "P 1"
_symmetry_int_tables_number       1

loop_
  _symmetry_equiv_pos_as_xyz
  'x, y, z'

loop_
  _atom_site_label
  _atom_site_occupancy
  _atom_site_fract_x
  _atom_site_fract_y
  _atom_site_fract_z
  _atom_site_thermal_displace_type
  _atom_site_B_iso_or_equiv
  _atom_site_type_symbol
  Mg1      1.0000 0.36753  0.05163  0.02431  Biso   1.000  Mg
  O1       1.0000 0.36014  0.98994  0.81530  Biso   1.000  O
  O2       1.0000 0.58446  0.97800  0.82950  Biso   1.000  O
  O3       1.0000 0.40422  0.96886  0.57820  Biso   1.000  O
  C1       1.0000 0.40271  0.98371  0.75000  Biso   1.000  C
  C2       1.0000 0.45271  0.99399  0.88460  Biso   1.000  C
  C3       1.0000 0.49744  0.98501  0.80970  Biso   1.000  C
  H1       1.0000 0.49540  0.97510  0.67650  Biso   1.000  H
  C4       1.0000 0.54503  0.98953  0.91730  Biso   1.000  C
  O4       1.0000 0.44244  0.12166  0.89670  Biso   1.000  O
  N1       1.0000 0.48720  0.17530  0.62440  Biso   1.000  N
  C5       1.0000 0.46080  0.12760  0.72800  Biso   1.000  C
  H2       1.0000 0.45450  0.09210  0.66650  Biso   1.000  H
  C6       1.0000 0.50380  0.17650  0.42450  Biso   1.000  C
  H3       1.0000 0.54670  0.20420  0.40950  Biso   1.000  H
  H4       1.0000 0.48150  0.18970  0.34350  Biso   1.000  H
  H5       1.0000 0.49440  0.13640  0.38480  Biso   1.000  H
  C7       1.0000 0.49260  0.23210  0.71590  Biso   1.000  C
  H6       1.0000 0.47690  0.25020  0.62590  Biso   1.000  H
  H7       1.0000 0.53460  0.26060  0.74340  Biso   1.000  H
  H8       1.0000 0.46960  0.22170  0.83660  Biso   1.000  H
  C8       1.0000 0.45710  0.16380  0.79060  Biso   1.000  C
  H9       1.0000 0.44600  0.19210  0.83000  Biso   1.000  H
  C9       1.0000 0.49960  0.12470  0.53800  Biso   1.000  C
  H10      1.0000 0.47960  0.08880  0.61930  Biso   1.000  H
  H11      1.0000 0.54270  0.13950  0.53710  Biso   1.000  H
  H12      1.0000 0.48400  0.11480  0.40600  Biso   1.000  H
  C10      1.0000 0.49540  0.21760  0.48000  Biso   1.000  C
  H13      1.0000 0.48340  0.24550  0.53050  Biso   1.000  H
  H14      1.0000 0.47090  0.19690  0.36650  Biso   1.000  H
  H15      1.0000 0.53750  0.23980  0.44180  Biso   1.000  H
  Mg2      1.0000 0.03420  0.38496  0.35764  Biso   1.000  Mg
  O5       1.0000 0.02681  0.32327  0.14863  Biso   1.000  O
  O6       1.0000 0.25113  0.31133  0.16283  Biso   1.000  O
  O7       1.0000 0.07089  0.30219  0.91153  Biso   1.000  O
  C11      1.0000 0.06938  0.31704  0.08333  Biso   1.000  C
  C12      1.0000 0.11938  0.32732  0.21793  Biso   1.000  C
  C13      1.0000 0.16411  0.31834  0.14303  Biso   1.000  C
  H16      1.0000 0.16207  0.30843  0.00983  Biso   1.000  H
  C14      1.0000 0.21170  0.32286  0.25063  Biso   1.000  C
  O8       1.0000 0.10911  0.45499  0.23003  Biso   1.000  O
  N2       1.0000 0.15387  0.50863  0.95773  Biso   1.000  N
  C15      1.0000 0.12747  0.46093  0.06133  Biso   1.000  C
  H17      1.0000 0.12117  0.42543  0.99983  Biso   1.000  H
  C16      1.0000 0.17047  0.50983  0.75783  Biso   1.000  C
  H18      1.0000 0.21337  0.53753  0.74283  Biso   1.000  H
  H19      1.0000 0.14817  0.52303  0.67683  Biso   1.000  H
  H20      1.0000 0.16107  0.46973  0.71813  Biso   1.000  H
  C17      1.0000 0.15927  0.56543  0.04923  Biso   1.000  C
  H21      1.0000 0.14357  0.58353  0.95923  Biso   1.000  H
  H22      1.0000 0.20127  0.59393  0.07673  Biso   1.000  H
  H23      1.0000 0.13627  0.55503  0.16993  Biso   1.000  H
  C18      1.0000 0.12377  0.49713  0.12393  Biso   1.000  C
  H24      1.0000 0.11267  0.52543  0.16333  Biso   1.000  H
  C19      1.0000 0.16627  0.45803  0.87133  Biso   1.000  C
  H25      1.0000 0.14627  0.42213  0.95263  Biso   1.000  H
  H26      1.0000 0.20937  0.47283  0.87043  Biso   1.000  H
  H27      1.0000 0.15067  0.44813  0.73933  Biso   1.000  H
  C20      1.0000 0.16207  0.55093  0.81333  Biso   1.000  C
  H28      1.0000 0.15007  0.57883  0.86383  Biso   1.000  H
  H29      1.0000 0.13757  0.53023  0.69983  Biso   1.000  H
  H30      1.0000 0.20417  0.57313  0.77513  Biso   1.000  H
  Mg3      1.0000 0.70086  0.71830  0.69098  Biso   1.000  Mg
  O9       1.0000 0.69347  0.65661  0.48197  Biso   1.000  O
  O10      1.0000 0.91779  0.64467  0.49617  Biso   1.000  O
  O11      1.0000 0.73755  0.63553  0.24487  Biso   1.000  O
  C21      1.0000 0.73604  0.65038  0.41667  Biso   1.000  C
  C22      1.0000 0.78604  0.66066  0.55127  Biso   1.000  C
  C23      1.0000 0.83077  0.65168  0.47637  Biso   1.000  C
  H31      1.0000 0.82873  0.64177  0.34317  Biso   1.000  H
  C24      1.0000 0.87836  0.65620  0.58397  Biso   1.000  C
  O12      1.0000 0.77577  0.78833  0.56337  Biso   1.000  O
  N3       1.0000 0.82053  0.84197  0.29107  Biso   1.000  N
  C25      1.0000 0.79413  0.79427  0.39467  Biso   1.000  C
  H32      1.0000 0.78783  0.75877  0.33317  Biso   1.000  H
  C26      1.0000 0.83713  0.84317  0.09117  Biso   1.000  C
  H33      1.0000 0.88003  0.87087  0.07617  Biso   1.000  H
  H34      1.0000 0.81483  0.85637  0.01017  Biso   1.000  H
  H35      1.0000 0.82773  0.80307  0.05147  Biso   1.000  H
  C27      1.0000 0.82593  0.89877  0.38257  Biso   1.000  C
  H36      1.0000 0.81023  0.91687  0.29257  Biso   1.000  H
  H37      1.0000 0.86793  0.92727  0.41007  Biso   1.000  H
  H38      1.0000 0.80293  0.88837  0.50327  Biso   1.000  H
  C28      1.0000 0.79043  0.83047  0.45727  Biso   1.000  C
  H39      1.0000 0.77933  0.85877  0.49667  Biso   1.000  H
  C29      1.0000 0.83293  0.79137  0.20467  Biso   1.000  C
  H40      1.0000 0.81293  0.75547  0.28597  Biso   1.000  H
  H41      1.0000 0.87603  0.80617  0.20377  Biso   1.000  H
  H42      1.0000 0.81733  0.78147  0.07267  Biso   1.000  H
  C30      1.0000 0.82873  0.88427  0.14667  Biso   1.000  C
  H43      1.0000 0.81673  0.91217  0.19717  Biso   1.000  H
  H44      1.0000 0.80423  0.86357  0.03317  Biso   1.000  H
  H45      1.0000 0.87083  0.90647  0.10847  Biso   1.000  H
  Mg4      1.0000 0.94837  0.31590  0.02431  Biso   1.000  Mg
  O13      1.0000 0.01006  0.37020  0.81530  Biso   1.000  O
  O14      1.0000 0.02200  0.60646  0.82950  Biso   1.000  O
  O15      1.0000 0.03114  0.43536  0.57820  Biso   1.000  O
  C31      1.0000 0.01629  0.41900  0.75000  Biso   1.000  C
  C32      1.0000 0.00601  0.45872  0.88460  Biso   1.000  C
  C33      1.0000 0.01499  0.51243  0.80970  Biso   1.000  C
  H46      1.0000 0.02490  0.52030  0.67650  Biso   1.000  H
  C34      1.0000 0.01047  0.55550  0.91730  Biso   1.000  C
  O16      1.0000 0.87834  0.32078  0.89670  Biso   1.000  O
  N4       1.0000 0.82470  0.31190  0.62440  Biso   1.000  N
  C35      1.0000 0.87240  0.33320  0.72800  Biso   1.000  C
  H47      1.0000 0.90790  0.36240  0.66650  Biso   1.000  H
  C36      1.0000 0.82350  0.32730  0.42450  Biso   1.000  C
  H48      1.0000 0.79580  0.34250  0.40950  Biso   1.000  H
  H49      1.0000 0.81030  0.29180  0.34350  Biso   1.000  H
  H50      1.0000 0.86360  0.35800  0.38480  Biso   1.000  H
  C37      1.0000 0.76790  0.26050  0.71590  Biso   1.000  C
  H51      1.0000 0.74980  0.22670  0.62590  Biso   1.000  H
  H52      1.0000 0.73940  0.27400  0.74340  Biso   1.000  H
  H53      1.0000 0.77830  0.24790  0.83660  Biso   1.000  H
  C38      1.0000 0.83620  0.29330  0.79060  Biso   1.000  C
  H54      1.0000 0.80790  0.25390  0.83000  Biso   1.000  H
  C39      1.0000 0.87530  0.37490  0.53800  Biso   1.000  C
  H55      1.0000 0.91120  0.39080  0.61930  Biso   1.000  H
  H56      1.0000 0.86050  0.40320  0.53710  Biso   1.000  H
  H57      1.0000 0.88520  0.36920  0.40600  Biso   1.000  H
  C40      1.0000 0.78240  0.27780  0.48000  Biso   1.000  C
  H58      1.0000 0.75450  0.23790  0.53050  Biso   1.000  H
  H59      1.0000 0.80310  0.27400  0.36650  Biso   1.000  H
  H60      1.0000 0.76020  0.29770  0.44180  Biso   1.000  H
  Mg5      1.0000 0.61504  0.64923  0.35764  Biso   1.000  Mg
  O17      1.0000 0.67673  0.70353  0.14863  Biso   1.000  O
  O18      1.0000 0.68867  0.93979  0.16283  Biso   1.000  O
  O19      1.0000 0.69781  0.76869  0.91153  Biso   1.000  O
  C41      1.0000 0.68296  0.75233  0.08333  Biso   1.000  C
  C42      1.0000 0.67268  0.79205  0.21793  Biso   1.000  C
  C43      1.0000 0.68166  0.84576  0.14303  Biso   1.000  C
  H61      1.0000 0.69157  0.85363  0.00983  Biso   1.000  H
  C44      1.0000 0.67714  0.88883  0.25063  Biso   1.000  C
  O20      1.0000 0.54501  0.65411  0.23003  Biso   1.000  O
  N5       1.0000 0.49137  0.64523  0.95773  Biso   1.000  N
  C45      1.0000 0.53907  0.66653  0.06133  Biso   1.000  C
  H62      1.0000 0.57457  0.69573  0.99983  Biso   1.000  H
  C46      1.0000 0.49017  0.66063  0.75783  Biso   1.000  C
  H63      1.0000 0.46247  0.67583  0.74283  Biso   1.000  H
  H64      1.0000 0.47697  0.62513  0.67683  Biso   1.000  H
  H65      1.0000 0.53027  0.69133  0.71813  Biso   1.000  H
  C47      1.0000 0.43457  0.59383  0.04923  Biso   1.000  C
  H66      1.0000 0.41647  0.56003  0.95923  Biso   1.000  H
  H67      1.0000 0.40607  0.60733  0.07673  Biso   1.000  H
  H68      1.0000 0.44497  0.58123  0.16993  Biso   1.000  H
  C48      1.0000 0.50287  0.62663  0.12393  Biso   1.000  C
  H69      1.0000 0.47457  0.58723  0.16333  Biso   1.000  H
  C49      1.0000 0.54197  0.70823  0.87133  Biso   1.000  C
  H70      1.0000 0.57787  0.72413  0.95263  Biso   1.000  H
  H71      1.0000 0.52717  0.73653  0.87043  Biso   1.000  H
  H72      1.0000 0.55187  0.70253  0.73933  Biso   1.000  H
  C50      1.0000 0.44907  0.61113  0.81333  Biso   1.000  C
  H73      1.0000 0.42117  0.57123  0.86383  Biso   1.000  H
  H74      1.0000 0.46977  0.60733  0.69983  Biso   1.000  H
  H75      1.0000 0.42687  0.63103  0.77513  Biso   1.000  H
  Mg6      1.0000 0.28170  0.98257  0.69098  Biso   1.000  Mg
  O21      1.0000 0.34339  0.03687  0.48197  Biso   1.000  O
  O22      1.0000 0.35533  0.27313  0.49617  Biso   1.000  O
  O23      1.0000 0.36447  0.10203  0.24487  Biso   1.000  O
  C51      1.0000 0.34962  0.08567  0.41667  Biso   1.000  C
  C52      1.0000 0.33934  0.12539  0.55127  Biso   1.000  C
  C53      1.0000 0.34832  0.17910  0.47637  Biso   1.000  C
  H76      1.0000 0.35823  0.18697  0.34317  Biso   1.000  H
  C54      1.0000 0.34380  0.22217  0.58397  Biso   1.000  C
  O24      1.0000 0.21167  0.98745  0.56337  Biso   1.000  O
  N6       1.0000 0.15803  0.97857  0.29107  Biso   1.000  N
  C55      1.0000 0.20573  0.99987  0.39467  Biso   1.000  C
  H77      1.0000 0.24123  0.02907  0.33317  Biso   1.000  H
  C56      1.0000 0.15683  0.99397  0.09117  Biso   1.000  C
  H78      1.0000 0.12913  0.00917  0.07617  Biso   1.000  H
  H79      1.0000 0.14363  0.95847  0.01017  Biso   1.000  H
  H80      1.0000 0.19693  0.02467  0.05147  Biso   1.000  H
  C57      1.0000 0.10123  0.92717  0.38257  Biso   1.000  C
  H81      1.0000 0.08313  0.89337  0.29257  Biso   1.000  H
  H82      1.0000 0.07273  0.94067  0.41007  Biso   1.000  H
  H83      1.0000 0.11163  0.91457  0.50327  Biso   1.000  H
  C58      1.0000 0.16953  0.95997  0.45727  Biso   1.000  C
  H84      1.0000 0.14123  0.92057  0.49667  Biso   1.000  H
  C59      1.0000 0.20863  0.04157  0.20467  Biso   1.000  C
  H85      1.0000 0.24453  0.05747  0.28597  Biso   1.000  H
  H86      1.0000 0.19383  0.06987  0.20377  Biso   1.000  H
  H87      1.0000 0.21853  0.03587  0.07267  Biso   1.000  H
  C60      1.0000 0.11573  0.94447  0.14667  Biso   1.000  C
  H88      1.0000 0.08783  0.90457  0.19717  Biso   1.000  H
  H89      1.0000 0.13643  0.94067  0.03317  Biso   1.000  H
  H90      1.0000 0.09353  0.96437  0.10847  Biso   1.000  H
  Mg7      1.0000 0.68410  0.63247  0.02431  Biso   1.000  Mg
  O25      1.0000 0.62980  0.63986  0.81530  Biso   1.000  O
  O26      1.0000 0.39354  0.41554  0.82950  Biso   1.000  O
  O27      1.0000 0.56464  0.59578  0.57820  Biso   1.000  O
  C61      1.0000 0.58100  0.59729  0.75000  Biso   1.000  C
  C62      1.0000 0.54128  0.54729  0.88460  Biso   1.000  C
  C63      1.0000 0.48757  0.50256  0.80970  Biso   1.000  C
  H91      1.0000 0.47970  0.50460  0.67650  Biso   1.000  H
  C64      1.0000 0.44450  0.45497  0.91730  Biso   1.000  C
  O28      1.0000 0.67922  0.55756  0.89670  Biso   1.000  O
  N7       1.0000 0.68810  0.51280  0.62440  Biso   1.000  N
  C65      1.0000 0.66680  0.53920  0.72800  Biso   1.000  C
  H92      1.0000 0.63760  0.54550  0.66650  Biso   1.000  H
  C66      1.0000 0.67270  0.49620  0.42450  Biso   1.000  C
  H93      1.0000 0.65750  0.45330  0.40950  Biso   1.000  H
  H94      1.0000 0.70820  0.51850  0.34350  Biso   1.000  H
  H95      1.0000 0.64200  0.50560  0.38480  Biso   1.000  H
  C67      1.0000 0.73950  0.50740  0.71590  Biso   1.000  C
  H96      1.0000 0.77330  0.52310  0.62590  Biso   1.000  H
  H97      1.0000 0.72600  0.46540  0.74340  Biso   1.000  H
  H98      1.0000 0.75210  0.53040  0.83660  Biso   1.000  H
  C68      1.0000 0.70670  0.54290  0.79060  Biso   1.000  C
  H99      1.0000 0.74610  0.55400  0.83000  Biso   1.000  H
  C69      1.0000 0.62510  0.50040  0.53800  Biso   1.000  C
  H100     1.0000 0.60920  0.52040  0.61930  Biso   1.000  H
  H101     1.0000 0.59680  0.45730  0.53710  Biso   1.000  H
  H102     1.0000 0.63080  0.51600  0.40600  Biso   1.000  H
  C70      1.0000 0.72220  0.50460  0.48000  Biso   1.000  C
  H103     1.0000 0.76210  0.51660  0.53050  Biso   1.000  H
  H104     1.0000 0.72600  0.52910  0.36650  Biso   1.000  H
  H105     1.0000 0.70230  0.46250  0.44180  Biso   1.000  H
  Mg8      1.0000 0.35077  0.96580  0.35764  Biso   1.000  Mg
  O29      1.0000 0.29647  0.97319  0.14863  Biso   1.000  O
  O30      1.0000 0.06021  0.74887  0.16283  Biso   1.000  O
  O31      1.0000 0.23131  0.92911  0.91153  Biso   1.000  O
  C71      1.0000 0.24767  0.93062  0.08333  Biso   1.000  C
  C72      1.0000 0.20795  0.88062  0.21793  Biso   1.000  C
  C73      1.0000 0.15424  0.83589  0.14303  Biso   1.000  C
  H106     1.0000 0.14637  0.83793  0.00983  Biso   1.000  H
  C74      1.0000 0.11117  0.78830  0.25063  Biso   1.000  C
  O32      1.0000 0.34589  0.89089  0.23003  Biso   1.000  O
  N8       1.0000 0.35477  0.84613  0.95773  Biso   1.000  N
  C75      1.0000 0.33347  0.87253  0.06133  Biso   1.000  C
  H107     1.0000 0.30427  0.87883  0.99983  Biso   1.000  H
  C76      1.0000 0.33937  0.82953  0.75783  Biso   1.000  C
  H108     1.0000 0.32417  0.78663  0.74283  Biso   1.000  H
  H109     1.0000 0.37487  0.85183  0.67683  Biso   1.000  H
  H110     1.0000 0.30867  0.83893  0.71813  Biso   1.000  H
  C77      1.0000 0.40617  0.84073  0.04923  Biso   1.000  C
  H111     1.0000 0.43997  0.85643  0.95923  Biso   1.000  H
  H112     1.0000 0.39267  0.79873  0.07673  Biso   1.000  H
  H113     1.0000 0.41877  0.86373  0.16993  Biso   1.000  H
  C78      1.0000 0.37337  0.87623  0.12393  Biso   1.000  C
  H114     1.0000 0.41277  0.88733  0.16333  Biso   1.000  H
  C79      1.0000 0.29177  0.83373  0.87133  Biso   1.000  C
  H115     1.0000 0.27587  0.85373  0.95263  Biso   1.000  H
  H116     1.0000 0.26347  0.79063  0.87043  Biso   1.000  H
  H117     1.0000 0.29747  0.84933  0.73933  Biso   1.000  H
  C80      1.0000 0.38887  0.83793  0.81333  Biso   1.000  C
  H118     1.0000 0.42877  0.84993  0.86383  Biso   1.000  H
  H119     1.0000 0.39267  0.86243  0.69983  Biso   1.000  H
  H120     1.0000 0.36897  0.79583  0.77513  Biso   1.000  H
  Mg9      1.0000 0.01743  0.29914  0.69098  Biso   1.000  Mg
  O33      1.0000 0.96313  0.30653  0.48197  Biso   1.000  O
  O34      1.0000 0.72687  0.08221  0.49617  Biso   1.000  O
  O35      1.0000 0.89797  0.26245  0.24487  Biso   1.000  O
  C81      1.0000 0.91433  0.26396  0.41667  Biso   1.000  C
  C82      1.0000 0.87461  0.21396  0.55127  Biso   1.000  C
  C83      1.0000 0.82090  0.16923  0.47637  Biso   1.000  C
  H121     1.0000 0.81303  0.17127  0.34317  Biso   1.000  H
  C84      1.0000 0.77783  0.12164  0.58397  Biso   1.000  C
  O36      1.0000 0.01255  0.22423  0.56337  Biso   1.000  O
  N9       1.0000 0.02143  0.17947  0.29107  Biso   1.000  N
  C85      1.0000 0.00013  0.20587  0.39467  Biso   1.000  C
  H122     1.0000 0.97093  0.21217  0.33317  Biso   1.000  H
  C86      1.0000 0.00603  0.16287  0.09117  Biso   1.000  C
  H123     1.0000 0.99083  0.11997  0.07617  Biso   1.000  H
  H124     1.0000 0.04153  0.18517  0.01017  Biso   1.000  H
  H125     1.0000 0.97533  0.17227  0.05147  Biso   1.000  H
  C87      1.0000 0.07283  0.17407  0.38257  Biso   1.000  C
  H126     1.0000 0.10663  0.18977  0.29257  Biso   1.000  H
  H127     1.0000 0.05933  0.13207  0.41007  Biso   1.000  H
  H128     1.0000 0.08543  0.19707  0.50327  Biso   1.000  H
  C88      1.0000 0.04003  0.20957  0.45727  Biso   1.000  C
  H129     1.0000 0.07943  0.22067  0.49667  Biso   1.000  H
  C89      1.0000 0.95843  0.16707  0.20467  Biso   1.000  C
  H130     1.0000 0.94253  0.18707  0.28597  Biso   1.000  H
  H131     1.0000 0.93013  0.12397  0.20377  Biso   1.000  H
  H132     1.0000 0.96413  0.18267  0.07267  Biso   1.000  H
  C90      1.0000 0.05553  0.17127  0.14667  Biso   1.000  C
  H133     1.0000 0.09543  0.18327  0.19717  Biso   1.000  H
  H134     1.0000 0.05933  0.19577  0.03317  Biso   1.000  H
  H135     1.0000 0.03563  0.12917  0.10847  Biso   1.000  H
  Mg10     1.0000 0.63247  0.94837  0.97569  Biso   1.000  Mg
  O37      1.0000 0.63986  0.01006  0.18470  Biso   1.000  O
  O38      1.0000 0.41554  0.02200  0.17050  Biso   1.000  O
  O39      1.0000 0.59578  0.03114  0.42180  Biso   1.000  O
  C91      1.0000 0.59729  0.01629  0.25000  Biso   1.000  C
  C92      1.0000 0.54729  0.00601  0.11540  Biso   1.000  C
  C93      1.0000 0.50256  0.01499  0.19030  Biso   1.000  C
  H136     1.0000 0.50460  0.02490  0.32350  Biso   1.000  H
  C94      1.0000 0.45497  0.01047  0.08270  Biso   1.000  C
  O40      1.0000 0.55756  0.87834  0.10330  Biso   1.000  O
  N10      1.0000 0.51280  0.82470  0.37560  Biso   1.000  N
  C95      1.0000 0.53920  0.87240  0.27200  Biso   1.000  C
  H137     1.0000 0.54550  0.90790  0.33350  Biso   1.000  H
  C96      1.0000 0.49620  0.82350  0.57550  Biso   1.000  C
  H138     1.0000 0.45330  0.79580  0.59050  Biso   1.000  H
  H139     1.0000 0.51850  0.81030  0.65650  Biso   1.000  H
  H140     1.0000 0.50560  0.86360  0.61520  Biso   1.000  H
  C97      1.0000 0.50740  0.76790  0.28410  Biso   1.000  C
  H141     1.0000 0.52310  0.74980  0.37410  Biso   1.000  H
  H142     1.0000 0.46540  0.73940  0.25660  Biso   1.000  H
  H143     1.0000 0.53040  0.77830  0.16340  Biso   1.000  H
  C98      1.0000 0.54290  0.83620  0.20940  Biso   1.000  C
  H144     1.0000 0.55400  0.80790  0.17000  Biso   1.000  H
  C99      1.0000 0.50040  0.87530  0.46200  Biso   1.000  C
  H145     1.0000 0.52040  0.91120  0.38070  Biso   1.000  H
  H146     1.0000 0.45730  0.86050  0.46290  Biso   1.000  H
  H147     1.0000 0.51600  0.88520  0.59400  Biso   1.000  H
  C100     1.0000 0.50460  0.78240  0.52000  Biso   1.000  C
  H148     1.0000 0.51660  0.75450  0.46950  Biso   1.000  H
  H149     1.0000 0.52910  0.80310  0.63350  Biso   1.000  H
  H150     1.0000 0.46250  0.76020  0.55820  Biso   1.000  H
  Mg11     1.0000 0.29914  0.28170  0.30902  Biso   1.000  Mg
  O41      1.0000 0.30653  0.34339  0.51803  Biso   1.000  O
  O42      1.0000 0.08221  0.35533  0.50383  Biso   1.000  O
  O43      1.0000 0.26245  0.36447  0.75513  Biso   1.000  O
  C101     1.0000 0.26396  0.34962  0.58333  Biso   1.000  C
  C102     1.0000 0.21396  0.33934  0.44873  Biso   1.000  C
  C103     1.0000 0.16923  0.34832  0.52363  Biso   1.000  C
  H151     1.0000 0.17127  0.35823  0.65683  Biso   1.000  H
  C104     1.0000 0.12164  0.34380  0.41603  Biso   1.000  C
  O44      1.0000 0.22423  0.21167  0.43663  Biso   1.000  O
  N11      1.0000 0.17947  0.15803  0.70893  Biso   1.000  N
  C105     1.0000 0.20587  0.20573  0.60533  Biso   1.000  C
  H152     1.0000 0.21217  0.24123  0.66683  Biso   1.000  H
  C106     1.0000 0.16287  0.15683  0.90883  Biso   1.000  C
  H153     1.0000 0.11997  0.12913  0.92383  Biso   1.000  H
  H154     1.0000 0.18517  0.14363  0.98983  Biso   1.000  H
  H155     1.0000 0.17227  0.19693  0.94853  Biso   1.000  H
  C107     1.0000 0.17407  0.10123  0.61743  Biso   1.000  C
  H156     1.0000 0.18977  0.08313  0.70743  Biso   1.000  H
  H157     1.0000 0.13207  0.07273  0.58993  Biso   1.000  H
  H158     1.0000 0.19707  0.11163  0.49673  Biso   1.000  H
  C108     1.0000 0.20957  0.16953  0.54273  Biso   1.000  C
  H159     1.0000 0.22067  0.14123  0.50333  Biso   1.000  H
  C109     1.0000 0.16707  0.20863  0.79533  Biso   1.000  C
  H160     1.0000 0.18707  0.24453  0.71403  Biso   1.000  H
  H161     1.0000 0.12397  0.19383  0.79623  Biso   1.000  H
  H162     1.0000 0.18267  0.21853  0.92733  Biso   1.000  H
  C110     1.0000 0.17127  0.11573  0.85333  Biso   1.000  C
  H163     1.0000 0.18327  0.08783  0.80283  Biso   1.000  H
  H164     1.0000 0.19577  0.13643  0.96683  Biso   1.000  H
  H165     1.0000 0.12917  0.09353  0.89153  Biso   1.000  H
  Mg12     1.0000 0.96580  0.61504  0.64236  Biso   1.000  Mg
  O45      1.0000 0.97319  0.67673  0.85137  Biso   1.000  O
  O46      1.0000 0.74887  0.68867  0.83717  Biso   1.000  O
  O47      1.0000 0.92911  0.69781  0.08847  Biso   1.000  O
  C111     1.0000 0.93062  0.68296  0.91667  Biso   1.000  C
  C112     1.0000 0.88062  0.67268  0.78207  Biso   1.000  C
  C113     1.0000 0.83589  0.68166  0.85697  Biso   1.000  C
  H166     1.0000 0.83793  0.69157  0.99017  Biso   1.000  H
  C114     1.0000 0.78830  0.67714  0.74937  Biso   1.000  C
  O48      1.0000 0.89089  0.54501  0.76997  Biso   1.000  O
  N12      1.0000 0.84613  0.49137  0.04227  Biso   1.000  N
  C115     1.0000 0.87253  0.53907  0.93867  Biso   1.000  C
  H167     1.0000 0.87883  0.57457  0.00017  Biso   1.000  H
  C116     1.0000 0.82953  0.49017  0.24217  Biso   1.000  C
  H168     1.0000 0.78663  0.46247  0.25717  Biso   1.000  H
  H169     1.0000 0.85183  0.47697  0.32317  Biso   1.000  H
  H170     1.0000 0.83893  0.53027  0.28187  Biso   1.000  H
  C117     1.0000 0.84073  0.43457  0.95077  Biso   1.000  C
  H171     1.0000 0.85643  0.41647  0.04077  Biso   1.000  H
  H172     1.0000 0.79873  0.40607  0.92327  Biso   1.000  H
  H173     1.0000 0.86373  0.44497  0.83007  Biso   1.000  H
  C118     1.0000 0.87623  0.50287  0.87607  Biso   1.000  C
  H174     1.0000 0.88733  0.47457  0.83667  Biso   1.000  H
  C119     1.0000 0.83373  0.54197  0.12867  Biso   1.000  C
  H175     1.0000 0.85373  0.57787  0.04737  Biso   1.000  H
  H176     1.0000 0.79063  0.52717  0.12957  Biso   1.000  H
  H177     1.0000 0.84933  0.55187  0.26067  Biso   1.000  H
  C120     1.0000 0.83793  0.44907  0.18667  Biso   1.000  C
  H178     1.0000 0.84993  0.42117  0.13617  Biso   1.000  H
  H179     1.0000 0.86243  0.46977  0.30017  Biso   1.000  H
  H180     1.0000 0.79583  0.42687  0.22487  Biso   1.000  H
  Mg13     1.0000 0.05163  0.68410  0.97569  Biso   1.000  Mg
  O49      1.0000 0.98994  0.62980  0.18470  Biso   1.000  O
  O50      1.0000 0.97800  0.39354  0.17050  Biso   1.000  O
  O51      1.0000 0.96886  0.56464  0.42180  Biso   1.000  O
  C121     1.0000 0.98371  0.58100  0.25000  Biso   1.000  C
  C122     1.0000 0.99399  0.54128  0.11540  Biso   1.000  C
  C123     1.0000 0.98501  0.48757  0.19030  Biso   1.000  C
  H181     1.0000 0.97510  0.47970  0.32350  Biso   1.000  H
  C124     1.0000 0.98953  0.44450  0.08270  Biso   1.000  C
  O52      1.0000 0.12166  0.67922  0.10330  Biso   1.000  O
  N13      1.0000 0.17530  0.68810  0.37560  Biso   1.000  N
  C125     1.0000 0.12760  0.66680  0.27200  Biso   1.000  C
  H182     1.0000 0.09210  0.63760  0.33350  Biso   1.000  H
  C126     1.0000 0.17650  0.67270  0.57550  Biso   1.000  C
  H183     1.0000 0.20420  0.65750  0.59050  Biso   1.000  H
  H184     1.0000 0.18970  0.70820  0.65650  Biso   1.000  H
  H185     1.0000 0.13640  0.64200  0.61520  Biso   1.000  H
  C127     1.0000 0.23210  0.73950  0.28410  Biso   1.000  C
  H186     1.0000 0.25020  0.77330  0.37410  Biso   1.000  H
  H187     1.0000 0.26060  0.72600  0.25660  Biso   1.000  H
  H188     1.0000 0.22170  0.75210  0.16340  Biso   1.000  H
  C128     1.0000 0.16380  0.70670  0.20940  Biso   1.000  C
  H189     1.0000 0.19210  0.74610  0.17000  Biso   1.000  H
  C129     1.0000 0.12470  0.62510  0.46200  Biso   1.000  C
  H190     1.0000 0.08880  0.60920  0.38070  Biso   1.000  H
  H191     1.0000 0.13950  0.59680  0.46290  Biso   1.000  H
  H192     1.0000 0.11480  0.63080  0.59400  Biso   1.000  H
  C130     1.0000 0.21760  0.72220  0.52000  Biso   1.000  C
  H193     1.0000 0.24550  0.76210  0.46950  Biso   1.000  H
  H194     1.0000 0.19690  0.72600  0.63350  Biso   1.000  H
  H195     1.0000 0.23980  0.70230  0.55820  Biso   1.000  H
  Mg14     1.0000 0.71830  0.01743  0.30902  Biso   1.000  Mg
  O53      1.0000 0.65661  0.96313  0.51803  Biso   1.000  O
  O54      1.0000 0.64467  0.72687  0.50383  Biso   1.000  O
  O55      1.0000 0.63553  0.89797  0.75513  Biso   1.000  O
  C131     1.0000 0.65038  0.91433  0.58333  Biso   1.000  C
  C132     1.0000 0.66066  0.87461  0.44873  Biso   1.000  C
  C133     1.0000 0.65168  0.82090  0.52363  Biso   1.000  C
  H196     1.0000 0.64177  0.81303  0.65683  Biso   1.000  H
  C134     1.0000 0.65620  0.77783  0.41603  Biso   1.000  C
  O56      1.0000 0.78833  0.01255  0.43663  Biso   1.000  O
  N14      1.0000 0.84197  0.02143  0.70893  Biso   1.000  N
  C135     1.0000 0.79427  0.00013  0.60533  Biso   1.000  C
  H197     1.0000 0.75877  0.97093  0.66683  Biso   1.000  H
  C136     1.0000 0.84317  0.00603  0.90883  Biso   1.000  C
  H198     1.0000 0.87087  0.99083  0.92383  Biso   1.000  H
  H199     1.0000 0.85637  0.04153  0.98983  Biso   1.000  H
  H200     1.0000 0.80307  0.97533  0.94853  Biso   1.000  H
  C137     1.0000 0.89877  0.07283  0.61743  Biso   1.000  C
  H201     1.0000 0.91687  0.10663  0.70743  Biso   1.000  H
  H202     1.0000 0.92727  0.05933  0.58993  Biso   1.000  H
  H203     1.0000 0.88837  0.08543  0.49673  Biso   1.000  H
  C138     1.0000 0.83047  0.04003  0.54273  Biso   1.000  C
  H204     1.0000 0.85877  0.07943  0.50333  Biso   1.000  H
  C139     1.0000 0.79137  0.95843  0.79533  Biso   1.000  C
  H205     1.0000 0.75547  0.94253  0.71403  Biso   1.000  H
  H206     1.0000 0.80617  0.93013  0.79623  Biso   1.000  H
  H207     1.0000 0.78147  0.96413  0.92733  Biso   1.000  H
  C140     1.0000 0.88427  0.05553  0.85333  Biso   1.000  C
  H208     1.0000 0.91217  0.09543  0.80283  Biso   1.000  H
  H209     1.0000 0.86357  0.05933  0.96683  Biso   1.000  H
  H210     1.0000 0.90647  0.03563  0.89153  Biso   1.000  H
  Mg15     1.0000 0.38496  0.35077  0.64236  Biso   1.000  Mg
  O57      1.0000 0.32327  0.29647  0.85137  Biso   1.000  O
  O58      1.0000 0.31133  0.06021  0.83717  Biso   1.000  O
  O59      1.0000 0.30219  0.23131  0.08847  Biso   1.000  O
  C141     1.0000 0.31704  0.24767  0.91667  Biso   1.000  C
  C142     1.0000 0.32732  0.20795  0.78207  Biso   1.000  C
  C143     1.0000 0.31834  0.15424  0.85697  Biso   1.000  C
  H211     1.0000 0.30843  0.14637  0.99017  Biso   1.000  H
  C144     1.0000 0.32286  0.11117  0.74937  Biso   1.000  C
  O60      1.0000 0.45499  0.34589  0.76997  Biso   1.000  O
  N15      1.0000 0.50863  0.35477  0.04227  Biso   1.000  N
  C145     1.0000 0.46093  0.33347  0.93867  Biso   1.000  C
  H212     1.0000 0.42543  0.30427  0.00017  Biso   1.000  H
  C146     1.0000 0.50983  0.33937  0.24217  Biso   1.000  C
  H213     1.0000 0.53753  0.32417  0.25717  Biso   1.000  H
  H214     1.0000 0.52303  0.37487  0.32317  Biso   1.000  H
  H215     1.0000 0.46973  0.30867  0.28187  Biso   1.000  H
  C147     1.0000 0.56543  0.40617  0.95077  Biso   1.000  C
  H216     1.0000 0.58353  0.43997  0.04077  Biso   1.000  H
  H217     1.0000 0.59393  0.39267  0.92327  Biso   1.000  H
  H218     1.0000 0.55503  0.41877  0.83007  Biso   1.000  H
  C148     1.0000 0.49713  0.37337  0.87607  Biso   1.000  C
  H219     1.0000 0.52543  0.41277  0.83667  Biso   1.000  H
  C149     1.0000 0.45803  0.29177  0.12867  Biso   1.000  C
  H220     1.0000 0.42213  0.27587  0.04737  Biso   1.000  H
  H221     1.0000 0.47283  0.26347  0.12957  Biso   1.000  H
  H222     1.0000 0.44813  0.29747  0.26067  Biso   1.000  H
  C150     1.0000 0.55093  0.38887  0.18667  Biso   1.000  C
  H223     1.0000 0.57883  0.42877  0.13617  Biso   1.000  H
  H224     1.0000 0.53023  0.39267  0.30017  Biso   1.000  H
  H225     1.0000 0.57313  0.36897  0.22487  Biso   1.000  H
  Mg16     1.0000 0.31590  0.36753  0.97569  Biso   1.000  Mg
  O61      1.0000 0.37020  0.36014  0.18470  Biso   1.000  O
  O62      1.0000 0.60646  0.58446  0.17050  Biso   1.000  O
  O63      1.0000 0.43536  0.40422  0.42180  Biso   1.000  O
  C151     1.0000 0.41900  0.40271  0.25000  Biso   1.000  C
  C152     1.0000 0.45872  0.45271  0.11540  Biso   1.000  C
  C153     1.0000 0.51243  0.49744  0.19030  Biso   1.000  C
  H226     1.0000 0.52030  0.49540  0.32350  Biso   1.000  H
  C154     1.0000 0.55550  0.54503  0.08270  Biso   1.000  C
  O64      1.0000 0.32078  0.44244  0.10330  Biso   1.000  O
  N16      1.0000 0.31190  0.48720  0.37560  Biso   1.000  N
  C155     1.0000 0.33320  0.46080  0.27200  Biso   1.000  C
  H227     1.0000 0.36240  0.45450  0.33350  Biso   1.000  H
  C156     1.0000 0.32730  0.50380  0.57550  Biso   1.000  C
  H228     1.0000 0.34250  0.54670  0.59050  Biso   1.000  H
  H229     1.0000 0.29180  0.48150  0.65650  Biso   1.000  H
  H230     1.0000 0.35800  0.49440  0.61520  Biso   1.000  H
  C157     1.0000 0.26050  0.49260  0.28410  Biso   1.000  C
  H231     1.0000 0.22670  0.47690  0.37410  Biso   1.000  H
  H232     1.0000 0.27400  0.53460  0.25660  Biso   1.000  H
  H233     1.0000 0.24790  0.46960  0.16340  Biso   1.000  H
  C158     1.0000 0.29330  0.45710  0.20940  Biso   1.000  C
  H234     1.0000 0.25390  0.44600  0.17000  Biso   1.000  H
  C159     1.0000 0.37490  0.49960  0.46200  Biso   1.000  C
  H235     1.0000 0.39080  0.47960  0.38070  Biso   1.000  H
  H236     1.0000 0.40320  0.54270  0.46290  Biso   1.000  H
  H237     1.0000 0.36920  0.48400  0.59400  Biso   1.000  H
  C160     1.0000 0.27780  0.49540  0.52000  Biso   1.000  C
  H238     1.0000 0.23790  0.48340  0.46950  Biso   1.000  H
  H239     1.0000 0.27400  0.47090  0.63350  Biso   1.000  H
  H240     1.0000 0.29770  0.53750  0.55820  Biso   1.000  H
  Mg17     1.0000 0.98257  0.70086  0.30902  Biso   1.000  Mg
  O65      1.0000 0.03687  0.69347  0.51803  Biso   1.000  O
  O66      1.0000 0.27313  0.91779  0.50383  Biso   1.000  O
  O67      1.0000 0.10203  0.73755  0.75513  Biso   1.000  O
  C161     1.0000 0.08567  0.73604  0.58333  Biso   1.000  C
  C162     1.0000 0.12539  0.78604  0.44873  Biso   1.000  C
  C163     1.0000 0.17910  0.83077  0.52363  Biso   1.000  C
  H241     1.0000 0.18697  0.82873  0.65683  Biso   1.000  H
  C164     1.0000 0.22217  0.87836  0.41603  Biso   1.000  C
  O68      1.0000 0.98745  0.77577  0.43663  Biso   1.000  O
  N17      1.0000 0.97857  0.82053  0.70893  Biso   1.000  N
  C165     1.0000 0.99987  0.79413  0.60533  Biso   1.000  C
  H242     1.0000 0.02907  0.78783  0.66683  Biso   1.000  H
  C166     1.0000 0.99397  0.83713  0.90883  Biso   1.000  C
  H243     1.0000 0.00917  0.88003  0.92383  Biso   1.000  H
  H244     1.0000 0.95847  0.81483  0.98983  Biso   1.000  H
  H245     1.0000 0.02467  0.82773  0.94853  Biso   1.000  H
  C167     1.0000 0.92717  0.82593  0.61743  Biso   1.000  C
  H246     1.0000 0.89337  0.81023  0.70743  Biso   1.000  H
  H247     1.0000 0.94067  0.86793  0.58993  Biso   1.000  H
  H248     1.0000 0.91457  0.80293  0.49673  Biso   1.000  H
  C168     1.0000 0.95997  0.79043  0.54273  Biso   1.000  C
  H249     1.0000 0.92057  0.77933  0.50333  Biso   1.000  H
  C169     1.0000 0.04157  0.83293  0.79533  Biso   1.000  C
  H250     1.0000 0.05747  0.81293  0.71403  Biso   1.000  H
  H251     1.0000 0.06987  0.87603  0.79623  Biso   1.000  H
  H252     1.0000 0.03587  0.81733  0.92733  Biso   1.000  H
  C170     1.0000 0.94447  0.82873  0.85333  Biso   1.000  C
  H253     1.0000 0.90457  0.81673  0.80283  Biso   1.000  H
  H254     1.0000 0.94067  0.80423  0.96683  Biso   1.000  H
  H255     1.0000 0.96437  0.87083  0.89153  Biso   1.000  H
  Mg18     1.0000 0.64923  0.03420  0.64236  Biso   1.000  Mg
  O69      1.0000 0.70353  0.02681  0.85137  Biso   1.000  O
  O70      1.0000 0.93979  0.25113  0.83717  Biso   1.000  O
  O71      1.0000 0.76869  0.07089  0.08847  Biso   1.000  O
  C171     1.0000 0.75233  0.06938  0.91667  Biso   1.000  C
  C172     1.0000 0.79205  0.11938  0.78207  Biso   1.000  C
  C173     1.0000 0.84576  0.16411  0.85697  Biso   1.000  C
  H256     1.0000 0.85363  0.16207  0.99017  Biso   1.000  H
  C174     1.0000 0.88883  0.21170  0.74937  Biso   1.000  C
  O72      1.0000 0.65411  0.10911  0.76997  Biso   1.000  O
  N18      1.0000 0.64523  0.15387  0.04227  Biso   1.000  N
  C175     1.0000 0.66653  0.12747  0.93867  Biso   1.000  C
  H257     1.0000 0.69573  0.12117  0.00017  Biso   1.000  H
  C176     1.0000 0.66063  0.17047  0.24217  Biso   1.000  C
  H258     1.0000 0.67583  0.21337  0.25717  Biso   1.000  H
  H259     1.0000 0.62513  0.14817  0.32317  Biso   1.000  H
  H260     1.0000 0.69133  0.16107  0.28187  Biso   1.000  H
  C177     1.0000 0.59383  0.15927  0.95077  Biso   1.000  C
  H261     1.0000 0.56003  0.14357  0.04077  Biso   1.000  H
  H262     1.0000 0.60733  0.20127  0.92327  Biso   1.000  H
  H263     1.0000 0.58123  0.13627  0.83007  Biso   1.000  H
  C178     1.0000 0.62663  0.12377  0.87607  Biso   1.000  C
  H264     1.0000 0.58723  0.11267  0.83667  Biso   1.000  H
  C179     1.0000 0.70823  0.16627  0.12867  Biso   1.000  C
  H265     1.0000 0.72413  0.14627  0.04737  Biso   1.000  H
  H266     1.0000 0.73653  0.20937  0.12957  Biso   1.000  H
  H267     1.0000 0.70253  0.15067  0.26067  Biso   1.000  H
  C180     1.0000 0.61113  0.16207  0.18667  Biso   1.000  C
  H268     1.0000 0.57123  0.15007  0.13617  Biso   1.000  H
  H269     1.0000 0.60733  0.13757  0.30017  Biso   1.000  H
  H270     1.0000 0.63103  0.20417  0.22487  Biso   1.000  H
