data_image0
_cell_length_a       18.986
_cell_length_b       19.683
_cell_length_c       12.081
_cell_angle_alpha    90
_cell_angle_beta     90
_cell_angle_gamma    90

_symmetry_space_group_name_H-M    "P 1"
_symmetry_int_tables_number       1

loop_
  _symmetry_equiv_pos_as_xyz
  'x, y, z'

loop_
  _atom_site_label
  _atom_site_occupancy
  _atom_site_fract_x
  _atom_site_fract_y
  _atom_site_fract_z
  _atom_site_thermal_displace_type
  _atom_site_B_iso_or_equiv
  _atom_site_type_symbol
  Co1      1.0000 0.30923  0.16208  0.67025  Biso   1.000  Co
  C1       1.0000 0.21350  0.03820  0.61180  Biso   1.000  C
  H1       1.0000 0.18700  0.05580  0.67200  Biso   1.000  H
  C2       1.0000 0.18910  0.98180  0.55830  Biso   1.000  C
  H2       1.0000 0.14700  0.96020  0.58220  Biso   1.000  H
  C3       1.0000 0.22680  0.95600  0.46750  Biso   1.000  C
  C4       1.0000 0.28840  0.98890  0.43810  Biso   1.000  C
  H3       1.0000 0.31620  0.97290  0.37810  Biso   1.000  H
  C5       1.0000 0.30870  0.04520  0.49760  Biso   1.000  C
  H4       1.0000 0.35070  0.06750  0.47540  Biso   1.000  H
  C6       1.0000 0.20180  0.89560  0.40320  Biso   1.000  C
  C7       1.0000 0.00790  0.69210  0.42100  Biso   1.000  C
  H5       1.0000 0.03250  0.65040  0.42900  Biso   1.000  H
  C8       1.0000 0.93530  0.69020  0.40060  Biso   1.000  C
  H6       1.0000 0.91130  0.64800  0.39400  Biso   1.000  H
  C9       1.0000 0.19120  0.79830  0.67290  Biso   1.000  C
  H7       1.0000 0.21720  0.83210  0.63440  Biso   1.000  H
  C10      1.0000 0.18900  0.80110  0.78570  Biso   1.000  C
  H8       1.0000 0.20960  0.83840  0.82360  Biso   1.000  H
  N1       1.0000 0.27480  0.07050  0.58240  Biso   1.000  N
  O1       1.0000 0.15990  0.85490  0.45040  Biso   1.000  O
  O2       1.0000 0.22480  0.89010  0.30700  Biso   1.000  O
  O3       1.0000 0.79280  0.69480  0.34780  Biso   1.000  O
  O4       1.0000 0.15910  0.80540  0.01560  Biso   1.000  O
  H9       1.0000 0.27670  0.76100  0.35060  Biso   1.000  H
  C11      1.0000 0.32880  0.72040  0.47010  Biso   1.000  C
  H10      1.0000 0.32820  0.73050  0.54780  Biso   1.000  H
  H11      1.0000 0.32780  0.67200  0.46090  Biso   1.000  H
  H12      1.0000 0.43540  0.73070  0.44930  Biso   1.000  H
  H13      1.0000 0.39480  0.79840  0.42500  Biso   1.000  H
  H14      1.0000 0.39440  0.73950  0.33750  Biso   1.000  H
  O5       1.0000 0.41280  0.11610  0.68780  Biso   1.000  O
  H15      1.0000 0.42170  0.11400  0.75670  Biso   1.000  H
  C12      1.0000 0.47510  0.13900  0.63970  Biso   1.000  C
  H16      1.0000 0.46440  0.17100  0.57880  Biso   1.000  H
  H17      1.0000 0.50410  0.16290  0.69550  Biso   1.000  H
  C13      1.0000 0.51480  0.07790  0.59510  Biso   1.000  C
  H18      1.0000 0.55890  0.09310  0.56080  Biso   1.000  H
  H19      1.0000 0.52540  0.04660  0.65590  Biso   1.000  H
  H20      1.0000 0.48580  0.05470  0.53970  Biso   1.000  H
  C14      1.0000 0.12530  0.70120  0.67030  Biso   1.000  C
  C15      1.0000 0.12370  0.69840  0.78510  Biso   1.000  C
  H21      1.0000 0.10180  0.66660  0.62990  Biso   1.000  H
  H22      1.0000 0.10050  0.66220  0.82230  Biso   1.000  H
  Co2      1.0000 0.19077  0.83792  0.17025  Biso   1.000  Co
  C16      1.0000 0.28650  0.96180  0.11180  Biso   1.000  C
  H23      1.0000 0.31300  0.94420  0.17200  Biso   1.000  H
  C17      1.0000 0.31090  0.01820  0.05830  Biso   1.000  C
  H24      1.0000 0.35300  0.03980  0.08220  Biso   1.000  H
  C18      1.0000 0.27320  0.04400  0.96750  Biso   1.000  C
  C19      1.0000 0.21160  0.01110  0.93810  Biso   1.000  C
  H25      1.0000 0.18380  0.02710  0.87810  Biso   1.000  H
  C20      1.0000 0.19130  0.95480  0.99760  Biso   1.000  C
  H26      1.0000 0.14930  0.93250  0.97540  Biso   1.000  H
  C21      1.0000 0.29820  0.10440  0.90320  Biso   1.000  C
  C22      1.0000 0.49210  0.30790  0.92100  Biso   1.000  C
  H27      1.0000 0.46750  0.34960  0.92900  Biso   1.000  H
  C23      1.0000 0.56470  0.30980  0.90060  Biso   1.000  C
  H28      1.0000 0.58870  0.35200  0.89400  Biso   1.000  H
  C24      1.0000 0.30880  0.20170  0.17290  Biso   1.000  C
  H29      1.0000 0.28280  0.16790  0.13440  Biso   1.000  H
  C25      1.0000 0.31100  0.19890  0.28570  Biso   1.000  C
  H30      1.0000 0.29040  0.16160  0.32360  Biso   1.000  H
  N2       1.0000 0.22520  0.92950  0.08240  Biso   1.000  N
  O6       1.0000 0.34010  0.14510  0.95040  Biso   1.000  O
  O7       1.0000 0.27520  0.10990  0.80700  Biso   1.000  O
  O8       1.0000 0.70720  0.30520  0.84780  Biso   1.000  O
  O9       1.0000 0.34090  0.19460  0.51560  Biso   1.000  O
  H31      1.0000 0.22330  0.23900  0.85060  Biso   1.000  H
  C26      1.0000 0.17120  0.27960  0.97010  Biso   1.000  C
  H32      1.0000 0.17180  0.26950  0.04780  Biso   1.000  H
  H33      1.0000 0.17220  0.32800  0.96090  Biso   1.000  H
  H34      1.0000 0.06460  0.26930  0.94930  Biso   1.000  H
  H35      1.0000 0.10520  0.20160  0.92500  Biso   1.000  H
  H36      1.0000 0.10560  0.26050  0.83750  Biso   1.000  H
  O10      1.0000 0.08720  0.88390  0.18780  Biso   1.000  O
  H37      1.0000 0.07830  0.88600  0.25670  Biso   1.000  H
  C27      1.0000 0.02490  0.86100  0.13970  Biso   1.000  C
  H38      1.0000 0.03560  0.82900  0.07880  Biso   1.000  H
  H39      1.0000 0.99590  0.83710  0.19550  Biso   1.000  H
  C28      1.0000 0.98520  0.92210  0.09510  Biso   1.000  C
  H40      1.0000 0.94110  0.90690  0.06080  Biso   1.000  H
  H41      1.0000 0.97460  0.95340  0.15590  Biso   1.000  H
  H42      1.0000 0.01420  0.94530  0.03970  Biso   1.000  H
  C29      1.0000 0.37470  0.29880  0.17030  Biso   1.000  C
  C30      1.0000 0.37630  0.30160  0.28510  Biso   1.000  C
  H43      1.0000 0.39820  0.33340  0.12990  Biso   1.000  H
  H44      1.0000 0.39950  0.33780  0.32230  Biso   1.000  H
  Co3      1.0000 0.69077  0.66208  0.32975  Biso   1.000  Co
  C31      1.0000 0.78650  0.53820  0.38820  Biso   1.000  C
  H45      1.0000 0.81300  0.55580  0.32800  Biso   1.000  H
  C32      1.0000 0.81090  0.48180  0.44170  Biso   1.000  C
  H46      1.0000 0.85300  0.46020  0.41780  Biso   1.000  H
  C33      1.0000 0.77320  0.45600  0.53250  Biso   1.000  C
  C34      1.0000 0.71160  0.48890  0.56190  Biso   1.000  C
  H47      1.0000 0.68380  0.47290  0.62190  Biso   1.000  H
  C35      1.0000 0.69130  0.54520  0.50240  Biso   1.000  C
  H48      1.0000 0.64930  0.56750  0.52460  Biso   1.000  H
  C36      1.0000 0.79820  0.39560  0.59680  Biso   1.000  C
  C37      1.0000 0.99210  0.19210  0.57900  Biso   1.000  C
  H49      1.0000 0.96750  0.15040  0.57100  Biso   1.000  H
  C38      1.0000 0.06470  0.19020  0.59940  Biso   1.000  C
  H50      1.0000 0.08870  0.14800  0.60600  Biso   1.000  H
  C39      1.0000 0.80880  0.29830  0.32710  Biso   1.000  C
  H51      1.0000 0.78280  0.33210  0.36560  Biso   1.000  H
  C40      1.0000 0.81100  0.30110  0.21430  Biso   1.000  C
  H52      1.0000 0.79040  0.33840  0.17640  Biso   1.000  H
  N3       1.0000 0.72520  0.57050  0.41760  Biso   1.000  N
  O11      1.0000 0.84010  0.35490  0.54960  Biso   1.000  O
  O12      1.0000 0.77520  0.39010  0.69300  Biso   1.000  O
  O13      1.0000 0.20720  0.19480  0.65220  Biso   1.000  O
  O14      1.0000 0.84090  0.30540  0.98440  Biso   1.000  O
  H53      1.0000 0.72330  0.26100  0.64940  Biso   1.000  H
  C41      1.0000 0.67120  0.22040  0.52990  Biso   1.000  C
  H54      1.0000 0.67180  0.23050  0.45220  Biso   1.000  H
  H55      1.0000 0.67220  0.17200  0.53910  Biso   1.000  H
  H56      1.0000 0.56460  0.23070  0.55070  Biso   1.000  H
  H57      1.0000 0.60520  0.29840  0.57500  Biso   1.000  H
  H58      1.0000 0.60560  0.23950  0.66250  Biso   1.000  H
  O15      1.0000 0.58720  0.61610  0.31220  Biso   1.000  O
  H59      1.0000 0.57830  0.61400  0.24330  Biso   1.000  H
  C42      1.0000 0.52490  0.63900  0.36030  Biso   1.000  C
  H60      1.0000 0.53560  0.67100  0.42120  Biso   1.000  H
  H61      1.0000 0.49590  0.66290  0.30450  Biso   1.000  H
  C43      1.0000 0.48520  0.57790  0.40490  Biso   1.000  C
  H62      1.0000 0.44110  0.59310  0.43920  Biso   1.000  H
  H63      1.0000 0.47460  0.54660  0.34410  Biso   1.000  H
  H64      1.0000 0.51420  0.55470  0.46030  Biso   1.000  H
  C44      1.0000 0.87470  0.20120  0.32970  Biso   1.000  C
  C45      1.0000 0.87630  0.19840  0.21490  Biso   1.000  C
  H65      1.0000 0.89820  0.16660  0.37010  Biso   1.000  H
  H66      1.0000 0.89950  0.16220  0.17770  Biso   1.000  H
  Co4      1.0000 0.80923  0.33792  0.82975  Biso   1.000  Co
  C46      1.0000 0.71350  0.46180  0.88820  Biso   1.000  C
  H67      1.0000 0.68700  0.44420  0.82800  Biso   1.000  H
  C47      1.0000 0.68910  0.51820  0.94170  Biso   1.000  C
  H68      1.0000 0.64700  0.53980  0.91780  Biso   1.000  H
  C48      1.0000 0.72680  0.54400  0.03250  Biso   1.000  C
  C49      1.0000 0.78840  0.51110  0.06190  Biso   1.000  C
  H69      1.0000 0.81620  0.52710  0.12190  Biso   1.000  H
  C50      1.0000 0.80870  0.45480  0.00240  Biso   1.000  C
  H70      1.0000 0.85070  0.43250  0.02460  Biso   1.000  H
  C51      1.0000 0.70180  0.60440  0.09680  Biso   1.000  C
  C52      1.0000 0.50790  0.80790  0.07900  Biso   1.000  C
  H71      1.0000 0.53250  0.84960  0.07100  Biso   1.000  H
  C53      1.0000 0.43530  0.80980  0.09940  Biso   1.000  C
  H72      1.0000 0.41130  0.85200  0.10600  Biso   1.000  H
  C54      1.0000 0.69120  0.70170  0.82710  Biso   1.000  C
  H73      1.0000 0.71720  0.66790  0.86560  Biso   1.000  H
  C55      1.0000 0.68900  0.69890  0.71430  Biso   1.000  C
  H74      1.0000 0.70960  0.66160  0.67640  Biso   1.000  H
  N4       1.0000 0.77480  0.42950  0.91760  Biso   1.000  N
  O16      1.0000 0.65990  0.64510  0.04960  Biso   1.000  O
  O17      1.0000 0.72480  0.60990  0.19300  Biso   1.000  O
  O18      1.0000 0.29280  0.80520  0.15220  Biso   1.000  O
  O19      1.0000 0.65910  0.69460  0.48440  Biso   1.000  O
  H75      1.0000 0.77670  0.73900  0.14940  Biso   1.000  H
  C56      1.0000 0.82880  0.77960  0.02990  Biso   1.000  C
  H76      1.0000 0.82820  0.76950  0.95220  Biso   1.000  H
  H77      1.0000 0.82780  0.82800  0.03910  Biso   1.000  H
  H78      1.0000 0.93540  0.76930  0.05070  Biso   1.000  H
  H79      1.0000 0.89480  0.70160  0.07500  Biso   1.000  H
  H80      1.0000 0.89440  0.76050  0.16250  Biso   1.000  H
  O20      1.0000 0.91280  0.38390  0.81220  Biso   1.000  O
  H81      1.0000 0.92170  0.38600  0.74330  Biso   1.000  H
  C57      1.0000 0.97510  0.36100  0.86030  Biso   1.000  C
  H82      1.0000 0.96440  0.32900  0.92120  Biso   1.000  H
  H83      1.0000 0.00410  0.33710  0.80450  Biso   1.000  H
  C58      1.0000 0.01480  0.42210  0.90490  Biso   1.000  C
  H84      1.0000 0.05890  0.40690  0.93920  Biso   1.000  H
  H85      1.0000 0.02540  0.45340  0.84410  Biso   1.000  H
  H86      1.0000 0.98580  0.44530  0.96030  Biso   1.000  H
  C59      1.0000 0.62530  0.79880  0.82970  Biso   1.000  C
  C60      1.0000 0.62370  0.80160  0.71490  Biso   1.000  C
  H87      1.0000 0.60180  0.83340  0.87010  Biso   1.000  H
  H88      1.0000 0.60050  0.83780  0.67770  Biso   1.000  H
  Co5      1.0000 0.69077  0.83792  0.32975  Biso   1.000  Co
  C61      1.0000 0.78650  0.96180  0.38820  Biso   1.000  C
  H89      1.0000 0.81300  0.94420  0.32800  Biso   1.000  H
  C62      1.0000 0.81090  0.01820  0.44170  Biso   1.000  C
  H90      1.0000 0.85300  0.03980  0.41780  Biso   1.000  H
  C63      1.0000 0.77320  0.04400  0.53250  Biso   1.000  C
  C64      1.0000 0.71160  0.01110  0.56190  Biso   1.000  C
  H91      1.0000 0.68380  0.02710  0.62190  Biso   1.000  H
  C65      1.0000 0.69130  0.95480  0.50240  Biso   1.000  C
  H92      1.0000 0.64930  0.93250  0.52460  Biso   1.000  H
  C66      1.0000 0.79820  0.10440  0.59680  Biso   1.000  C
  C67      1.0000 0.99210  0.30790  0.57900  Biso   1.000  C
  H93      1.0000 0.96750  0.34960  0.57100  Biso   1.000  H
  C68      1.0000 0.06470  0.30980  0.59940  Biso   1.000  C
  H94      1.0000 0.08870  0.35200  0.60600  Biso   1.000  H
  C69      1.0000 0.80880  0.20170  0.32710  Biso   1.000  C
  H95      1.0000 0.78280  0.16790  0.36560  Biso   1.000  H
  C70      1.0000 0.81100  0.19890  0.21430  Biso   1.000  C
  H96      1.0000 0.79040  0.16160  0.17640  Biso   1.000  H
  N5       1.0000 0.72520  0.92950  0.41760  Biso   1.000  N
  O21      1.0000 0.84010  0.14510  0.54960  Biso   1.000  O
  O22      1.0000 0.77520  0.10990  0.69300  Biso   1.000  O
  O23      1.0000 0.20720  0.30520  0.65220  Biso   1.000  O
  O24      1.0000 0.84090  0.19460  0.98440  Biso   1.000  O
  H97      1.0000 0.72330  0.23900  0.64940  Biso   1.000  H
  C71      1.0000 0.67120  0.27960  0.52990  Biso   1.000  C
  H98      1.0000 0.67180  0.26950  0.45220  Biso   1.000  H
  H99      1.0000 0.67220  0.32800  0.53910  Biso   1.000  H
  H100     1.0000 0.56460  0.26930  0.55070  Biso   1.000  H
  H101     1.0000 0.60520  0.20160  0.57500  Biso   1.000  H
  H102     1.0000 0.60560  0.26050  0.66250  Biso   1.000  H
  O25      1.0000 0.58720  0.88390  0.31220  Biso   1.000  O
  H103     1.0000 0.57830  0.88600  0.24330  Biso   1.000  H
  C72      1.0000 0.52490  0.86100  0.36030  Biso   1.000  C
  H104     1.0000 0.53560  0.82900  0.42120  Biso   1.000  H
  H105     1.0000 0.49590  0.83710  0.30450  Biso   1.000  H
  C73      1.0000 0.48520  0.92210  0.40490  Biso   1.000  C
  H106     1.0000 0.44110  0.90690  0.43920  Biso   1.000  H
  H107     1.0000 0.47460  0.95340  0.34410  Biso   1.000  H
  H108     1.0000 0.51420  0.94530  0.46030  Biso   1.000  H
  C74      1.0000 0.87470  0.29880  0.32970  Biso   1.000  C
  C75      1.0000 0.87630  0.30160  0.21490  Biso   1.000  C
  H109     1.0000 0.89820  0.33340  0.37010  Biso   1.000  H
  H110     1.0000 0.89950  0.33780  0.17770  Biso   1.000  H
  Co6      1.0000 0.80923  0.16208  0.82975  Biso   1.000  Co
  C76      1.0000 0.71350  0.03820  0.88820  Biso   1.000  C
  H111     1.0000 0.68700  0.05580  0.82800  Biso   1.000  H
  C77      1.0000 0.68910  0.98180  0.94170  Biso   1.000  C
  H112     1.0000 0.64700  0.96020  0.91780  Biso   1.000  H
  C78      1.0000 0.72680  0.95600  0.03250  Biso   1.000  C
  C79      1.0000 0.78840  0.98890  0.06190  Biso   1.000  C
  H113     1.0000 0.81620  0.97290  0.12190  Biso   1.000  H
  C80      1.0000 0.80870  0.04520  0.00240  Biso   1.000  C
  H114     1.0000 0.85070  0.06750  0.02460  Biso   1.000  H
  C81      1.0000 0.70180  0.89560  0.09680  Biso   1.000  C
  C82      1.0000 0.50790  0.69210  0.07900  Biso   1.000  C
  H115     1.0000 0.53250  0.65040  0.07100  Biso   1.000  H
  C83      1.0000 0.43530  0.69020  0.09940  Biso   1.000  C
  H116     1.0000 0.41130  0.64800  0.10600  Biso   1.000  H
  C84      1.0000 0.69120  0.79830  0.82710  Biso   1.000  C
  H117     1.0000 0.71720  0.83210  0.86560  Biso   1.000  H
  C85      1.0000 0.68900  0.80110  0.71430  Biso   1.000  C
  H118     1.0000 0.70960  0.83840  0.67640  Biso   1.000  H
  N6       1.0000 0.77480  0.07050  0.91760  Biso   1.000  N
  O26      1.0000 0.65990  0.85490  0.04960  Biso   1.000  O
  O27      1.0000 0.72480  0.89010  0.19300  Biso   1.000  O
  O28      1.0000 0.29280  0.69480  0.15220  Biso   1.000  O
  O29      1.0000 0.65910  0.80540  0.48440  Biso   1.000  O
  H119     1.0000 0.77670  0.76100  0.14940  Biso   1.000  H
  C86      1.0000 0.82880  0.72040  0.02990  Biso   1.000  C
  H120     1.0000 0.82820  0.73050  0.95220  Biso   1.000  H
  H121     1.0000 0.82780  0.67200  0.03910  Biso   1.000  H
  H122     1.0000 0.93540  0.73070  0.05070  Biso   1.000  H
  H123     1.0000 0.89480  0.79840  0.07500  Biso   1.000  H
  H124     1.0000 0.89440  0.73950  0.16250  Biso   1.000  H
  O30      1.0000 0.91280  0.11610  0.81220  Biso   1.000  O
  H125     1.0000 0.92170  0.11400  0.74330  Biso   1.000  H
  C87      1.0000 0.97510  0.13900  0.86030  Biso   1.000  C
  H126     1.0000 0.96440  0.17100  0.92120  Biso   1.000  H
  H127     1.0000 0.00410  0.16290  0.80450  Biso   1.000  H
  C88      1.0000 0.01480  0.07790  0.90490  Biso   1.000  C
  H128     1.0000 0.05890  0.09310  0.93920  Biso   1.000  H
  H129     1.0000 0.02540  0.04660  0.84410  Biso   1.000  H
  H130     1.0000 0.98580  0.05470  0.96030  Biso   1.000  H
  C89      1.0000 0.62530  0.70120  0.82970  Biso   1.000  C
  C90      1.0000 0.62370  0.69840  0.71490  Biso   1.000  C
  H131     1.0000 0.60180  0.66660  0.87010  Biso   1.000  H
  H132     1.0000 0.60050  0.66220  0.67770  Biso   1.000  H
  Co7      1.0000 0.30923  0.33792  0.67025  Biso   1.000  Co
  C91      1.0000 0.21350  0.46180  0.61180  Biso   1.000  C
  H133     1.0000 0.18700  0.44420  0.67200  Biso   1.000  H
  C92      1.0000 0.18910  0.51820  0.55830  Biso   1.000  C
  H134     1.0000 0.14700  0.53980  0.58220  Biso   1.000  H
  C93      1.0000 0.22680  0.54400  0.46750  Biso   1.000  C
  C94      1.0000 0.28840  0.51110  0.43810  Biso   1.000  C
  H135     1.0000 0.31620  0.52710  0.37810  Biso   1.000  H
  C95      1.0000 0.30870  0.45480  0.49760  Biso   1.000  C
  H136     1.0000 0.35070  0.43250  0.47540  Biso   1.000  H
  C96      1.0000 0.20180  0.60440  0.40320  Biso   1.000  C
  C97      1.0000 0.00790  0.80790  0.42100  Biso   1.000  C
  H137     1.0000 0.03250  0.84960  0.42900  Biso   1.000  H
  C98      1.0000 0.93530  0.80980  0.40060  Biso   1.000  C
  H138     1.0000 0.91130  0.85200  0.39400  Biso   1.000  H
  C99      1.0000 0.19120  0.70170  0.67290  Biso   1.000  C
  H139     1.0000 0.21720  0.66790  0.63440  Biso   1.000  H
  C100     1.0000 0.18900  0.69890  0.78570  Biso   1.000  C
  H140     1.0000 0.20960  0.66160  0.82360  Biso   1.000  H
  N7       1.0000 0.27480  0.42950  0.58240  Biso   1.000  N
  O31      1.0000 0.15990  0.64510  0.45040  Biso   1.000  O
  O32      1.0000 0.22480  0.60990  0.30700  Biso   1.000  O
  O33      1.0000 0.79280  0.80520  0.34780  Biso   1.000  O
  O34      1.0000 0.15910  0.69460  0.01560  Biso   1.000  O
  H141     1.0000 0.27670  0.73900  0.35060  Biso   1.000  H
  C101     1.0000 0.32880  0.77960  0.47010  Biso   1.000  C
  H142     1.0000 0.32820  0.76950  0.54780  Biso   1.000  H
  H143     1.0000 0.32780  0.82800  0.46090  Biso   1.000  H
  H144     1.0000 0.43540  0.76930  0.44930  Biso   1.000  H
  H145     1.0000 0.39480  0.70160  0.42500  Biso   1.000  H
  H146     1.0000 0.39440  0.76050  0.33750  Biso   1.000  H
  O35      1.0000 0.41280  0.38390  0.68780  Biso   1.000  O
  H147     1.0000 0.42170  0.38600  0.75670  Biso   1.000  H
  C102     1.0000 0.47510  0.36100  0.63970  Biso   1.000  C
  H148     1.0000 0.46440  0.32900  0.57880  Biso   1.000  H
  H149     1.0000 0.50410  0.33710  0.69550  Biso   1.000  H
  C103     1.0000 0.51480  0.42210  0.59510  Biso   1.000  C
  H150     1.0000 0.55890  0.40690  0.56080  Biso   1.000  H
  H151     1.0000 0.52540  0.45340  0.65590  Biso   1.000  H
  H152     1.0000 0.48580  0.44530  0.53970  Biso   1.000  H
  C104     1.0000 0.12530  0.79880  0.67030  Biso   1.000  C
  C105     1.0000 0.12370  0.80160  0.78510  Biso   1.000  C
  H153     1.0000 0.10180  0.83340  0.62990  Biso   1.000  H
  H154     1.0000 0.10050  0.83780  0.82230  Biso   1.000  H
  Co8      1.0000 0.19077  0.66208  0.17025  Biso   1.000  Co
  C106     1.0000 0.28650  0.53820  0.11180  Biso   1.000  C
  H155     1.0000 0.31300  0.55580  0.17200  Biso   1.000  H
  C107     1.0000 0.31090  0.48180  0.05830  Biso   1.000  C
  H156     1.0000 0.35300  0.46020  0.08220  Biso   1.000  H
  C108     1.0000 0.27320  0.45600  0.96750  Biso   1.000  C
  C109     1.0000 0.21160  0.48890  0.93810  Biso   1.000  C
  H157     1.0000 0.18380  0.47290  0.87810  Biso   1.000  H
  C110     1.0000 0.19130  0.54520  0.99760  Biso   1.000  C
  H158     1.0000 0.14930  0.56750  0.97540  Biso   1.000  H
  C111     1.0000 0.29820  0.39560  0.90320  Biso   1.000  C
  C112     1.0000 0.49210  0.19210  0.92100  Biso   1.000  C
  H159     1.0000 0.46750  0.15040  0.92900  Biso   1.000  H
  C113     1.0000 0.56470  0.19020  0.90060  Biso   1.000  C
  H160     1.0000 0.58870  0.14800  0.89400  Biso   1.000  H
  C114     1.0000 0.30880  0.29830  0.17290  Biso   1.000  C
  H161     1.0000 0.28280  0.33210  0.13440  Biso   1.000  H
  C115     1.0000 0.31100  0.30110  0.28570  Biso   1.000  C
  H162     1.0000 0.29040  0.33840  0.32360  Biso   1.000  H
  N8       1.0000 0.22520  0.57050  0.08240  Biso   1.000  N
  O36      1.0000 0.34010  0.35490  0.95040  Biso   1.000  O
  O37      1.0000 0.27520  0.39010  0.80700  Biso   1.000  O
  O38      1.0000 0.70720  0.19480  0.84780  Biso   1.000  O
  O39      1.0000 0.34090  0.30540  0.51560  Biso   1.000  O
  H163     1.0000 0.22330  0.26100  0.85060  Biso   1.000  H
  C116     1.0000 0.17120  0.22040  0.97010  Biso   1.000  C
  H164     1.0000 0.17180  0.23050  0.04780  Biso   1.000  H
  H165     1.0000 0.17220  0.17200  0.96090  Biso   1.000  H
  H166     1.0000 0.06460  0.23070  0.94930  Biso   1.000  H
  H167     1.0000 0.10520  0.29840  0.92500  Biso   1.000  H
  H168     1.0000 0.10560  0.23950  0.83750  Biso   1.000  H
  O40      1.0000 0.08720  0.61610  0.18780  Biso   1.000  O
  H169     1.0000 0.07830  0.61400  0.25670  Biso   1.000  H
  C117     1.0000 0.02490  0.63900  0.13970  Biso   1.000  C
  H170     1.0000 0.03560  0.67100  0.07880  Biso   1.000  H
  H171     1.0000 0.99590  0.66290  0.19550  Biso   1.000  H
  C118     1.0000 0.98520  0.57790  0.09510  Biso   1.000  C
  H172     1.0000 0.94110  0.59310  0.06080  Biso   1.000  H
  H173     1.0000 0.97460  0.54660  0.15590  Biso   1.000  H
  H174     1.0000 0.01420  0.55470  0.03970  Biso   1.000  H
  C119     1.0000 0.37470  0.20120  0.17030  Biso   1.000  C
  C120     1.0000 0.37630  0.19840  0.28510  Biso   1.000  C
  H175     1.0000 0.39820  0.16660  0.12990  Biso   1.000  H
  H176     1.0000 0.39950  0.16220  0.32230  Biso   1.000  H
  Co9      1.0000 0.15669  0.75000  0.42999  Biso   1.000  Co
  C121     1.0000 0.89960  0.75000  0.39050  Biso   1.000  C
  C122     1.0000 0.82200  0.75000  0.35910  Biso   1.000  C
  C123     1.0000 0.15690  0.75000  0.84440  Biso   1.000  C
  C124     1.0000 0.15930  0.75000  0.97130  Biso   1.000  C
  N9       1.0000 0.04410  0.75000  0.42960  Biso   1.000  N
  N10      1.0000 0.15840  0.75000  0.61350  Biso   1.000  N
  O41      1.0000 0.15630  0.75000  0.25500  Biso   1.000  O
  O42      1.0000 0.27050  0.75000  0.41790  Biso   1.000  O
  C125     1.0000 0.39430  0.75000  0.41510  Biso   1.000  C
  H177     1.0000 0.11500  0.75000  0.24000  Biso   1.000  H
  Co10     1.0000 0.34331  0.25000  0.92999  Biso   1.000  Co
  C126     1.0000 0.60040  0.25000  0.89050  Biso   1.000  C
  C127     1.0000 0.67800  0.25000  0.85910  Biso   1.000  C
  C128     1.0000 0.34310  0.25000  0.34440  Biso   1.000  C
  C129     1.0000 0.34070  0.25000  0.47130  Biso   1.000  C
  N11      1.0000 0.45590  0.25000  0.92960  Biso   1.000  N
  N12      1.0000 0.34160  0.25000  0.11350  Biso   1.000  N
  O43      1.0000 0.34370  0.25000  0.75500  Biso   1.000  O
  O44      1.0000 0.22950  0.25000  0.91790  Biso   1.000  O
  C130     1.0000 0.10570  0.25000  0.91510  Biso   1.000  C
  H178     1.0000 0.38500  0.25000  0.74000  Biso   1.000  H
  Co11     1.0000 0.84331  0.25000  0.57001  Biso   1.000  Co
  C131     1.0000 0.10040  0.25000  0.60950  Biso   1.000  C
  C132     1.0000 0.17800  0.25000  0.64090  Biso   1.000  C
  C133     1.0000 0.84310  0.25000  0.15560  Biso   1.000  C
  C134     1.0000 0.84070  0.25000  0.02870  Biso   1.000  C
  N13      1.0000 0.95590  0.25000  0.57040  Biso   1.000  N
  N14      1.0000 0.84160  0.25000  0.38650  Biso   1.000  N
  O45      1.0000 0.84370  0.25000  0.74500  Biso   1.000  O
  O46      1.0000 0.72950  0.25000  0.58210  Biso   1.000  O
  C135     1.0000 0.60570  0.25000  0.58490  Biso   1.000  C
  H179     1.0000 0.88500  0.25000  0.76000  Biso   1.000  H
  Co12     1.0000 0.65669  0.75000  0.07001  Biso   1.000  Co
  C136     1.0000 0.39960  0.75000  0.10950  Biso   1.000  C
  C137     1.0000 0.32200  0.75000  0.14090  Biso   1.000  C
  C138     1.0000 0.65690  0.75000  0.65560  Biso   1.000  C
  C139     1.0000 0.65930  0.75000  0.52870  Biso   1.000  C
  N15      1.0000 0.54410  0.75000  0.07040  Biso   1.000  N
  N16      1.0000 0.65840  0.75000  0.88650  Biso   1.000  N
  O47      1.0000 0.65630  0.75000  0.24500  Biso   1.000  O
  O48      1.0000 0.77050  0.75000  0.08210  Biso   1.000  O
  C140     1.0000 0.89430  0.75000  0.08490  Biso   1.000  C
  H180     1.0000 0.61500  0.75000  0.26000  Biso   1.000  H
