data_image0
_cell_length_a       7.119
_cell_length_b       21.58
_cell_length_c       9.1
_cell_angle_alpha    90
_cell_angle_beta     90
_cell_angle_gamma    90

_symmetry_space_group_name_H-M    "P 1"
_symmetry_int_tables_number       1

loop_
  _symmetry_equiv_pos_as_xyz
  'x, y, z'

loop_
  _atom_site_label
  _atom_site_occupancy
  _atom_site_fract_x
  _atom_site_fract_y
  _atom_site_fract_z
  _atom_site_thermal_displace_type
  _atom_site_B_iso_or_equiv
  _atom_site_type_symbol
  C1       1.0000 0.33300  0.75080  0.77900  Biso   1.000  C
  H1       1.0000 0.21860  0.77070  0.79270  Biso   1.000  H
  C2       1.0000 0.33220  0.69260  0.73610  Biso   1.000  C
  H2       1.0000 0.21680  0.67350  0.72040  Biso   1.000  H
  H3       1.0000 0.89120  0.94610  0.74870  Biso   1.000  H
  H4       1.0000 0.11010  0.02540  0.61000  Biso   1.000  H
  N1       1.0000 0.60350  0.93480  0.93220  Biso   1.000  N
  N2       1.0000 0.65680  0.88180  0.88450  Biso   1.000  N
  O1       1.0000 0.64580  0.56820  0.65230  Biso   1.000  O
  C3       1.0000 0.83300  0.25080  0.27900  Biso   1.000  C
  H5       1.0000 0.71860  0.27070  0.29270  Biso   1.000  H
  C4       1.0000 0.83220  0.19260  0.23610  Biso   1.000  C
  H6       1.0000 0.71680  0.17350  0.22040  Biso   1.000  H
  H7       1.0000 0.39120  0.44610  0.24870  Biso   1.000  H
  H8       1.0000 0.61010  0.52540  0.11000  Biso   1.000  H
  N3       1.0000 0.10350  0.43480  0.43220  Biso   1.000  N
  N4       1.0000 0.15680  0.38180  0.38450  Biso   1.000  N
  O2       1.0000 0.14580  0.06820  0.15230  Biso   1.000  O
  C5       1.0000 0.66700  0.24920  0.77900  Biso   1.000  C
  H9       1.0000 0.78140  0.22930  0.79270  Biso   1.000  H
  C6       1.0000 0.66780  0.30740  0.73610  Biso   1.000  C
  H10      1.0000 0.78320  0.32650  0.72040  Biso   1.000  H
  H11      1.0000 0.10880  0.05390  0.74870  Biso   1.000  H
  H12      1.0000 0.88990  0.97460  0.61000  Biso   1.000  H
  N5       1.0000 0.39650  0.06520  0.93220  Biso   1.000  N
  N6       1.0000 0.34320  0.11820  0.88450  Biso   1.000  N
  O3       1.0000 0.35420  0.43180  0.65230  Biso   1.000  O
  C7       1.0000 0.16700  0.74920  0.27900  Biso   1.000  C
  H13      1.0000 0.28140  0.72930  0.29270  Biso   1.000  H
  C8       1.0000 0.16780  0.80740  0.23610  Biso   1.000  C
  H14      1.0000 0.28320  0.82650  0.22040  Biso   1.000  H
  H15      1.0000 0.60880  0.55390  0.24870  Biso   1.000  H
  H16      1.0000 0.38990  0.47460  0.11000  Biso   1.000  H
  N7       1.0000 0.89650  0.56520  0.43220  Biso   1.000  N
  N8       1.0000 0.84320  0.61820  0.38450  Biso   1.000  N
  O4       1.0000 0.85420  0.93180  0.15230  Biso   1.000  O
  C9       1.0000 0.33300  0.24920  0.77900  Biso   1.000  C
  H17      1.0000 0.21860  0.22930  0.79270  Biso   1.000  H
  C10      1.0000 0.33220  0.30740  0.73610  Biso   1.000  C
  H18      1.0000 0.21680  0.32650  0.72040  Biso   1.000  H
  H19      1.0000 0.89120  0.05390  0.74870  Biso   1.000  H
  H20      1.0000 0.11010  0.97460  0.61000  Biso   1.000  H
  N9       1.0000 0.60350  0.06520  0.93220  Biso   1.000  N
  N10      1.0000 0.65680  0.11820  0.88450  Biso   1.000  N
  O5       1.0000 0.64580  0.43180  0.65230  Biso   1.000  O
  C11      1.0000 0.83300  0.74920  0.27900  Biso   1.000  C
  H21      1.0000 0.71860  0.72930  0.29270  Biso   1.000  H
  C12      1.0000 0.83220  0.80740  0.23610  Biso   1.000  C
  H22      1.0000 0.71680  0.82650  0.22040  Biso   1.000  H
  H23      1.0000 0.39120  0.55390  0.24870  Biso   1.000  H
  H24      1.0000 0.61010  0.47460  0.11000  Biso   1.000  H
  N11      1.0000 0.10350  0.56520  0.43220  Biso   1.000  N
  N12      1.0000 0.15680  0.61820  0.38450  Biso   1.000  N
  O6       1.0000 0.14580  0.93180  0.15230  Biso   1.000  O
  C13      1.0000 0.66700  0.75080  0.77900  Biso   1.000  C
  H25      1.0000 0.78140  0.77070  0.79270  Biso   1.000  H
  C14      1.0000 0.66780  0.69260  0.73610  Biso   1.000  C
  H26      1.0000 0.78320  0.67350  0.72040  Biso   1.000  H
  H27      1.0000 0.10880  0.94610  0.74870  Biso   1.000  H
  H28      1.0000 0.88990  0.02540  0.61000  Biso   1.000  H
  N13      1.0000 0.39650  0.93480  0.93220  Biso   1.000  N
  N14      1.0000 0.34320  0.88180  0.88450  Biso   1.000  N
  O7       1.0000 0.35420  0.56820  0.65230  Biso   1.000  O
  C15      1.0000 0.16700  0.25080  0.27900  Biso   1.000  C
  H29      1.0000 0.28140  0.27070  0.29270  Biso   1.000  H
  C16      1.0000 0.16780  0.19260  0.23610  Biso   1.000  C
  H30      1.0000 0.28320  0.17350  0.22040  Biso   1.000  H
  H31      1.0000 0.60880  0.44610  0.24870  Biso   1.000  H
  H32      1.0000 0.38990  0.52540  0.11000  Biso   1.000  H
  N15      1.0000 0.89650  0.43480  0.43220  Biso   1.000  N
  N16      1.0000 0.84320  0.38180  0.38450  Biso   1.000  N
  O8       1.0000 0.85420  0.06820  0.15230  Biso   1.000  O
  C17      1.0000 0.50000  0.78440  0.80380  Biso   1.000  C
  C18      1.0000 0.50000  0.65670  0.71250  Biso   1.000  C
  C19      1.0000 0.50000  0.59290  0.66920  Biso   1.000  C
  C20      1.0000 0.50000  0.84620  0.85350  Biso   1.000  C
  C21      1.0000 0.00000  0.28440  0.30380  Biso   1.000  C
  C22      1.0000 0.00000  0.15670  0.21250  Biso   1.000  C
  C23      1.0000 0.00000  0.09290  0.16920  Biso   1.000  C
  C24      1.0000 0.00000  0.34620  0.35350  Biso   1.000  C
  C25      1.0000 0.50000  0.21560  0.80380  Biso   1.000  C
  C26      1.0000 0.50000  0.34330  0.71250  Biso   1.000  C
  C27      1.0000 0.50000  0.40710  0.66920  Biso   1.000  C
  C28      1.0000 0.50000  0.15380  0.85350  Biso   1.000  C
  C29      1.0000 0.00000  0.71560  0.30380  Biso   1.000  C
  C30      1.0000 0.00000  0.84330  0.21250  Biso   1.000  C
  C31      1.0000 0.00000  0.90710  0.16920  Biso   1.000  C
  C32      1.0000 0.00000  0.65380  0.35350  Biso   1.000  C
  C33      1.0000 0.00000  0.97320  0.74900  Biso   1.000  C
  H33      1.0000 0.00000  0.96890  0.54410  Biso   1.000  H
  C34      1.0000 0.50000  0.47320  0.24900  Biso   1.000  C
  H34      1.0000 0.50000  0.46890  0.04410  Biso   1.000  H
  C35      1.0000 0.00000  0.02680  0.74900  Biso   1.000  C
  H35      1.0000 0.00000  0.03110  0.54410  Biso   1.000  H
  C36      1.0000 0.50000  0.52680  0.24900  Biso   1.000  C
  H36      1.0000 0.50000  0.53110  0.04410  Biso   1.000  H
  C37      1.0000 0.00000  0.00000  0.61960  Biso   1.000  C
  O9       1.0000 0.00000  0.00000  0.87800  Biso   1.000  O
  C38      1.0000 0.50000  0.50000  0.11960  Biso   1.000  C
  O10      1.0000 0.50000  0.50000  0.37800  Biso   1.000  O
  Cu1      1.0000 0.74826  0.00000  0.03300  Biso   1.000  Cu
  Cu2      1.0000 0.24826  0.50000  0.53300  Biso   1.000  Cu
  Cu3      1.0000 0.25174  0.00000  0.03300  Biso   1.000  Cu
  Cu4      1.0000 0.75174  0.50000  0.53300  Biso   1.000  Cu
