data_image0
_cell_length_a       14.803
_cell_length_b       19.783
_cell_length_c       8.202
_cell_angle_alpha    90
_cell_angle_beta     90
_cell_angle_gamma    90

_symmetry_space_group_name_H-M    "P 1"
_symmetry_int_tables_number       1

loop_
  _symmetry_equiv_pos_as_xyz
  'x, y, z'

loop_
  _atom_site_label
  _atom_site_occupancy
  _atom_site_fract_x
  _atom_site_fract_y
  _atom_site_fract_z
  _atom_site_thermal_displace_type
  _atom_site_B_iso_or_equiv
  _atom_site_type_symbol
  Bi1      1.0000 0.80443  0.61612  0.90323  Biso   1.000  Bi
  O1       1.0000 0.72360  0.43740  0.20590  Biso   1.000  O
  O2       1.0000 0.71680  0.52850  0.04960  Biso   1.000  O
  O3       1.0000 0.89410  0.63260  0.65710  Biso   1.000  O
  O4       1.0000 0.02930  0.63960  0.54540  Biso   1.000  O
  O5       1.0000 0.87440  0.48590  0.34950  Biso   1.000  O
  O6       1.0000 0.87040  0.57500  0.18460  Biso   1.000  O
  C1       1.0000 0.84100  0.52050  0.23680  Biso   1.000  C
  C2       1.0000 0.97660  0.63480  0.66470  Biso   1.000  C
  C3       1.0000 0.75290  0.49330  0.15580  Biso   1.000  C
  Bi2      1.0000 0.19557  0.61612  0.59677  Biso   1.000  Bi
  O7       1.0000 0.27640  0.43740  0.29410  Biso   1.000  O
  O8       1.0000 0.28320  0.52850  0.45040  Biso   1.000  O
  O9       1.0000 0.10590  0.63260  0.84290  Biso   1.000  O
  O10      1.0000 0.97070  0.63960  0.95460  Biso   1.000  O
  O11      1.0000 0.12560  0.48590  0.15050  Biso   1.000  O
  O12      1.0000 0.12960  0.57500  0.31540  Biso   1.000  O
  C4       1.0000 0.15900  0.52050  0.26320  Biso   1.000  C
  C5       1.0000 0.02340  0.63480  0.83530  Biso   1.000  C
  C6       1.0000 0.24710  0.49330  0.34420  Biso   1.000  C
  Bi3      1.0000 0.19557  0.38388  0.09677  Biso   1.000  Bi
  O13      1.0000 0.27640  0.56260  0.79410  Biso   1.000  O
  O14      1.0000 0.28320  0.47150  0.95040  Biso   1.000  O
  O15      1.0000 0.10590  0.36740  0.34290  Biso   1.000  O
  O16      1.0000 0.97070  0.36040  0.45460  Biso   1.000  O
  O17      1.0000 0.12560  0.51410  0.65050  Biso   1.000  O
  O18      1.0000 0.12960  0.42500  0.81540  Biso   1.000  O
  C7       1.0000 0.15900  0.47950  0.76320  Biso   1.000  C
  C8       1.0000 0.02340  0.36520  0.33530  Biso   1.000  C
  C9       1.0000 0.24710  0.50670  0.84420  Biso   1.000  C
  Bi4      1.0000 0.80443  0.38388  0.40323  Biso   1.000  Bi
  O19      1.0000 0.72360  0.56260  0.70590  Biso   1.000  O
  O20      1.0000 0.71680  0.47150  0.54960  Biso   1.000  O
  O21      1.0000 0.89410  0.36740  0.15710  Biso   1.000  O
  O22      1.0000 0.02930  0.36040  0.04540  Biso   1.000  O
  O23      1.0000 0.87440  0.51410  0.84950  Biso   1.000  O
  O24      1.0000 0.87040  0.42500  0.68460  Biso   1.000  O
  C10      1.0000 0.84100  0.47950  0.73680  Biso   1.000  C
  C11      1.0000 0.97660  0.36520  0.16470  Biso   1.000  C
  C12      1.0000 0.75290  0.50670  0.65580  Biso   1.000  C
  O25      1.0000 0.77640  0.06260  0.70590  Biso   1.000  O
  O26      1.0000 0.78320  0.97150  0.54960  Biso   1.000  O
  O27      1.0000 0.60590  0.86740  0.15710  Biso   1.000  O
  O28      1.0000 0.47070  0.86040  0.04540  Biso   1.000  O
  O29      1.0000 0.62560  0.01410  0.84950  Biso   1.000  O
  O30      1.0000 0.62960  0.92500  0.68460  Biso   1.000  O
  C13      1.0000 0.65900  0.97950  0.73680  Biso   1.000  C
  C14      1.0000 0.52340  0.86520  0.16470  Biso   1.000  C
  C15      1.0000 0.74710  0.00670  0.65580  Biso   1.000  C
  Bi5      1.0000 0.69557  0.88388  0.40323  Biso   1.000  Bi
  O31      1.0000 0.22360  0.06260  0.79410  Biso   1.000  O
  O32      1.0000 0.21680  0.97150  0.95040  Biso   1.000  O
  O33      1.0000 0.39410  0.86740  0.34290  Biso   1.000  O
  O34      1.0000 0.52930  0.86040  0.45460  Biso   1.000  O
  O35      1.0000 0.37440  0.01410  0.65050  Biso   1.000  O
  O36      1.0000 0.37040  0.92500  0.81540  Biso   1.000  O
  C16      1.0000 0.34100  0.97950  0.76320  Biso   1.000  C
  C17      1.0000 0.47660  0.86520  0.33530  Biso   1.000  C
  C18      1.0000 0.25290  0.00670  0.84420  Biso   1.000  C
  Bi6      1.0000 0.30443  0.88388  0.09677  Biso   1.000  Bi
  O37      1.0000 0.22360  0.93740  0.29410  Biso   1.000  O
  O38      1.0000 0.21680  0.02850  0.45040  Biso   1.000  O
  O39      1.0000 0.39410  0.13260  0.84290  Biso   1.000  O
  O40      1.0000 0.52930  0.13960  0.95460  Biso   1.000  O
  O41      1.0000 0.37440  0.98590  0.15050  Biso   1.000  O
  O42      1.0000 0.37040  0.07500  0.31540  Biso   1.000  O
  C19      1.0000 0.34100  0.02050  0.26320  Biso   1.000  C
  C20      1.0000 0.47660  0.13480  0.83530  Biso   1.000  C
  C21      1.0000 0.25290  0.99330  0.34420  Biso   1.000  C
  Bi7      1.0000 0.30443  0.11612  0.59677  Biso   1.000  Bi
  O43      1.0000 0.77640  0.93740  0.20590  Biso   1.000  O
  O44      1.0000 0.78320  0.02850  0.04960  Biso   1.000  O
  O45      1.0000 0.60590  0.13260  0.65710  Biso   1.000  O
  O46      1.0000 0.47070  0.13960  0.54540  Biso   1.000  O
  O47      1.0000 0.62560  0.98590  0.34950  Biso   1.000  O
  O48      1.0000 0.62960  0.07500  0.18460  Biso   1.000  O
  C22      1.0000 0.65900  0.02050  0.23680  Biso   1.000  C
  C23      1.0000 0.52340  0.13480  0.66470  Biso   1.000  C
  C24      1.0000 0.74710  0.99330  0.15580  Biso   1.000  C
  Bi8      1.0000 0.69557  0.11612  0.90323  Biso   1.000  Bi
