data_image0
_cell_length_a       11.507
_cell_length_b       20.988
_cell_length_c       8.821
_cell_angle_alpha    90
_cell_angle_beta     102.307
_cell_angle_gamma    90

_symmetry_space_group_name_H-M    "P 1"
_symmetry_int_tables_number       1

loop_
  _symmetry_equiv_pos_as_xyz
  'x, y, z'

loop_
  _atom_site_label
  _atom_site_occupancy
  _atom_site_fract_x
  _atom_site_fract_y
  _atom_site_fract_z
  _atom_site_thermal_displace_type
  _atom_site_B_iso_or_equiv
  _atom_site_type_symbol
  La1      1.0000 0.16799  0.26218  0.11443  Biso   1.000  La
  O1       1.0000 0.05530  0.21901  0.85870  Biso   1.000  O
  O2       1.0000 0.94780  0.20690  0.62220  Biso   1.000  O
  O3       1.0000 0.38280  0.19970  0.60760  Biso   1.000  O
  O4       1.0000 0.29090  0.23452  0.37890  Biso   1.000  O
  O5       1.0000 0.10420  0.35419  0.93330  Biso   1.000  O
  O6       1.0000 0.06810  0.33934  0.67760  Biso   1.000  O
  O7       1.0000 0.29190  0.16200  0.08540  Biso   1.000  O
  H1       1.0000 0.32400  0.15500  0.01100  Biso   1.000  H
  H2       1.0000 0.28400  0.12900  0.13500  Biso   1.000  H
  O8       1.0000 0.21210  0.36988  0.25260  Biso   1.000  O
  H3       1.0000 0.24200  0.39800  0.20500  Biso   1.000  H
  H4       1.0000 0.14900  0.38200  0.27600  Biso   1.000  H
  N1       1.0000 0.74290  0.18700  0.72100  Biso   1.000  N
  N2       1.0000 0.59410  0.18490  0.52750  Biso   1.000  N
  N3       1.0000 0.00070  0.47120  0.89980  Biso   1.000  N
  C1       1.0000 0.95700  0.21090  0.76400  Biso   1.000  C
  C2       1.0000 0.84700  0.20840  0.83310  Biso   1.000  C
  H5       1.0000 0.83150  0.25130  0.87090  Biso   1.000  H
  H6       1.0000 0.86170  0.17910  0.92310  Biso   1.000  H
  C3       1.0000 0.71180  0.12380  0.69500  Biso   1.000  C
  H7       1.0000 0.74890  0.08800  0.75120  Biso   1.000  H
  C4       1.0000 0.61800  0.12320  0.57360  Biso   1.000  C
  H8       1.0000 0.57610  0.08650  0.52840  Biso   1.000  H
  C5       1.0000 0.67100  0.22140  0.61890  Biso   1.000  C
  H9       1.0000 0.67390  0.26650  0.61180  Biso   1.000  H
  C6       1.0000 0.49370  0.20660  0.40770  Biso   1.000  C
  H10      1.0000 0.51370  0.24810  0.36630  Biso   1.000  H
  H11      1.0000 0.47910  0.17550  0.32120  Biso   1.000  H
  C7       1.0000 0.38220  0.21360  0.47100  Biso   1.000  C
  C8       1.0000 0.06510  0.36990  0.79840  Biso   1.000  C
  C9       1.0000 0.01260  0.43620  0.76990  Biso   1.000  C
  H12      1.0000 0.93290  0.43230  0.70080  Biso   1.000  H
  H13      1.0000 0.06290  0.46100  0.71320  Biso   1.000  H
  C10      1.0000 0.10100  0.51120  0.91100  Biso   1.000  C
  C11      1.0000 0.88900  0.45650  0.95800  Biso   1.000  C
  C12      1.0000 0.04300  0.51480  0.99300  Biso   1.000  C
  La2      1.0000 0.83201  0.76218  0.38557  Biso   1.000  La
  O9       1.0000 0.94470  0.71901  0.64130  Biso   1.000  O
  O10      1.0000 0.05220  0.70690  0.87780  Biso   1.000  O
  O11      1.0000 0.61720  0.69970  0.89240  Biso   1.000  O
  O12      1.0000 0.70910  0.73452  0.12110  Biso   1.000  O
  O13      1.0000 0.89580  0.85419  0.56670  Biso   1.000  O
  O14      1.0000 0.93190  0.83934  0.82240  Biso   1.000  O
  O15      1.0000 0.70810  0.66200  0.41460  Biso   1.000  O
  H14      1.0000 0.67600  0.65500  0.48900  Biso   1.000  H
  H15      1.0000 0.71600  0.62900  0.36500  Biso   1.000  H
  O16      1.0000 0.78790  0.86988  0.24740  Biso   1.000  O
  H16      1.0000 0.75800  0.89800  0.29500  Biso   1.000  H
  H17      1.0000 0.85100  0.88200  0.22400  Biso   1.000  H
  N4       1.0000 0.25710  0.68700  0.77900  Biso   1.000  N
  N5       1.0000 0.40590  0.68490  0.97250  Biso   1.000  N
  N6       1.0000 0.99930  0.97120  0.60020  Biso   1.000  N
  C13      1.0000 0.04300  0.71090  0.73600  Biso   1.000  C
  C14      1.0000 0.15300  0.70840  0.66690  Biso   1.000  C
  H18      1.0000 0.16850  0.75130  0.62910  Biso   1.000  H
  H19      1.0000 0.13830  0.67910  0.57690  Biso   1.000  H
  C15      1.0000 0.28820  0.62380  0.80500  Biso   1.000  C
  H20      1.0000 0.25110  0.58800  0.74880  Biso   1.000  H
  C16      1.0000 0.38200  0.62320  0.92640  Biso   1.000  C
  H21      1.0000 0.42390  0.58650  0.97160  Biso   1.000  H
  C17      1.0000 0.32900  0.72140  0.88110  Biso   1.000  C
  H22      1.0000 0.32610  0.76650  0.88820  Biso   1.000  H
  C18      1.0000 0.50630  0.70660  0.09230  Biso   1.000  C
  H23      1.0000 0.48630  0.74810  0.13370  Biso   1.000  H
  H24      1.0000 0.52090  0.67550  0.17880  Biso   1.000  H
  C19      1.0000 0.61780  0.71360  0.02900  Biso   1.000  C
  C20      1.0000 0.93490  0.86990  0.70160  Biso   1.000  C
  C21      1.0000 0.98740  0.93620  0.73010  Biso   1.000  C
  H25      1.0000 0.06710  0.93230  0.79920  Biso   1.000  H
  H26      1.0000 0.93710  0.96100  0.78680  Biso   1.000  H
  C22      1.0000 0.89900  0.01120  0.58900  Biso   1.000  C
  C23      1.0000 0.11100  0.95650  0.54200  Biso   1.000  C
  C24      1.0000 0.95700  0.01480  0.50700  Biso   1.000  C
  La3      1.0000 0.83201  0.73782  0.88557  Biso   1.000  La
  O17      1.0000 0.94470  0.78099  0.14130  Biso   1.000  O
  O18      1.0000 0.05220  0.79310  0.37780  Biso   1.000  O
  O19      1.0000 0.61720  0.80030  0.39240  Biso   1.000  O
  O20      1.0000 0.70910  0.76548  0.62110  Biso   1.000  O
  O21      1.0000 0.89580  0.64581  0.06670  Biso   1.000  O
  O22      1.0000 0.93190  0.66066  0.32240  Biso   1.000  O
  O23      1.0000 0.70810  0.83800  0.91460  Biso   1.000  O
  H27      1.0000 0.67600  0.84500  0.98900  Biso   1.000  H
  H28      1.0000 0.71600  0.87100  0.86500  Biso   1.000  H
  O24      1.0000 0.78790  0.63012  0.74740  Biso   1.000  O
  H29      1.0000 0.75800  0.60200  0.79500  Biso   1.000  H
  H30      1.0000 0.85100  0.61800  0.72400  Biso   1.000  H
  N7       1.0000 0.25710  0.81300  0.27900  Biso   1.000  N
  N8       1.0000 0.40590  0.81510  0.47250  Biso   1.000  N
  N9       1.0000 0.99930  0.52880  0.10020  Biso   1.000  N
  C25      1.0000 0.04300  0.78910  0.23600  Biso   1.000  C
  C26      1.0000 0.15300  0.79160  0.16690  Biso   1.000  C
  H31      1.0000 0.16850  0.74870  0.12910  Biso   1.000  H
  H32      1.0000 0.13830  0.82090  0.07690  Biso   1.000  H
  C27      1.0000 0.28820  0.87620  0.30500  Biso   1.000  C
  H33      1.0000 0.25110  0.91200  0.24880  Biso   1.000  H
  C28      1.0000 0.38200  0.87680  0.42640  Biso   1.000  C
  H34      1.0000 0.42390  0.91350  0.47160  Biso   1.000  H
  C29      1.0000 0.32900  0.77860  0.38110  Biso   1.000  C
  H35      1.0000 0.32610  0.73350  0.38820  Biso   1.000  H
  C30      1.0000 0.50630  0.79340  0.59230  Biso   1.000  C
  H36      1.0000 0.48630  0.75190  0.63370  Biso   1.000  H
  H37      1.0000 0.52090  0.82450  0.67880  Biso   1.000  H
  C31      1.0000 0.61780  0.78640  0.52900  Biso   1.000  C
  C32      1.0000 0.93490  0.63010  0.20160  Biso   1.000  C
  C33      1.0000 0.98740  0.56380  0.23010  Biso   1.000  C
  H38      1.0000 0.06710  0.56770  0.29920  Biso   1.000  H
  H39      1.0000 0.93710  0.53900  0.28680  Biso   1.000  H
  C34      1.0000 0.89900  0.48880  0.08900  Biso   1.000  C
  C35      1.0000 0.11100  0.54350  0.04200  Biso   1.000  C
  C36      1.0000 0.95700  0.48520  0.00700  Biso   1.000  C
  La4      1.0000 0.16799  0.23782  0.61443  Biso   1.000  La
  O25      1.0000 0.05530  0.28099  0.35870  Biso   1.000  O
  O26      1.0000 0.94780  0.29310  0.12220  Biso   1.000  O
  O27      1.0000 0.38280  0.30030  0.10760  Biso   1.000  O
  O28      1.0000 0.29090  0.26548  0.87890  Biso   1.000  O
  O29      1.0000 0.10420  0.14581  0.43330  Biso   1.000  O
  O30      1.0000 0.06810  0.16066  0.17760  Biso   1.000  O
  O31      1.0000 0.29190  0.33800  0.58540  Biso   1.000  O
  H40      1.0000 0.32400  0.34500  0.51100  Biso   1.000  H
  H41      1.0000 0.28400  0.37100  0.63500  Biso   1.000  H
  O32      1.0000 0.21210  0.13012  0.75260  Biso   1.000  O
  H42      1.0000 0.24200  0.10200  0.70500  Biso   1.000  H
  H43      1.0000 0.14900  0.11800  0.77600  Biso   1.000  H
  N10      1.0000 0.74290  0.31300  0.22100  Biso   1.000  N
  N11      1.0000 0.59410  0.31510  0.02750  Biso   1.000  N
  N12      1.0000 0.00070  0.02880  0.39980  Biso   1.000  N
  C37      1.0000 0.95700  0.28910  0.26400  Biso   1.000  C
  C38      1.0000 0.84700  0.29160  0.33310  Biso   1.000  C
  H44      1.0000 0.83150  0.24870  0.37090  Biso   1.000  H
  H45      1.0000 0.86170  0.32090  0.42310  Biso   1.000  H
  C39      1.0000 0.71180  0.37620  0.19500  Biso   1.000  C
  H46      1.0000 0.74890  0.41200  0.25120  Biso   1.000  H
  C40      1.0000 0.61800  0.37680  0.07360  Biso   1.000  C
  H47      1.0000 0.57610  0.41350  0.02840  Biso   1.000  H
  C41      1.0000 0.67100  0.27860  0.11890  Biso   1.000  C
  H48      1.0000 0.67390  0.23350  0.11180  Biso   1.000  H
  C42      1.0000 0.49370  0.29340  0.90770  Biso   1.000  C
  H49      1.0000 0.51370  0.25190  0.86630  Biso   1.000  H
  H50      1.0000 0.47910  0.32450  0.82120  Biso   1.000  H
  C43      1.0000 0.38220  0.28640  0.97100  Biso   1.000  C
  C44      1.0000 0.06510  0.13010  0.29840  Biso   1.000  C
  C45      1.0000 0.01260  0.06380  0.26990  Biso   1.000  C
  H51      1.0000 0.93290  0.06770  0.20080  Biso   1.000  H
  H52      1.0000 0.06290  0.03900  0.21320  Biso   1.000  H
  C46      1.0000 0.10100  0.98880  0.41100  Biso   1.000  C
  C47      1.0000 0.88900  0.04350  0.45800  Biso   1.000  C
  C48      1.0000 0.04300  0.98520  0.49300  Biso   1.000  C
