data_image0
_cell_length_a       12.5223
_cell_length_b       12.5223
_cell_length_c       15.7383
_cell_angle_alpha    113.442
_cell_angle_beta     113.442
_cell_angle_gamma    90.0001

_symmetry_space_group_name_H-M    P 1
_symmetry_int_tables_number       1

loop_
  _symmetry_equiv_pos_as_xyz
  'x, y, z'

loop_
  _atom_site_label
  _atom_site_occupancy
  _atom_site_fract_x
  _atom_site_fract_y
  _atom_site_fract_z
  _atom_site_thermal_displace_type
  _atom_site_B_iso_or_equiv
  _atom_site_type_symbol
  Zn1      1.0000 0.87509  0.39560  0.37492  Biso   1.000  Zn
  Zn2      1.0000 0.49983  0.97932  0.37492  Biso   1.000  Zn
  Zn3      1.0000 0.39560  0.49983  0.37492  Biso   1.000  Zn
  Zn4      1.0000 0.97932  0.87509  0.37492  Biso   1.000  Zn
  Zn5      1.0000 0.12491  0.60440  0.62508  Biso   1.000  Zn
  Zn6      1.0000 0.50017  0.02068  0.62508  Biso   1.000  Zn
  Zn7      1.0000 0.60440  0.50017  0.62508  Biso   1.000  Zn
  Zn8      1.0000 0.02068  0.12491  0.62508  Biso   1.000  Zn
  H1       1.0000 0.74900  0.99990  0.15460  Biso   1.000  H
  H2       1.0000 0.91490  0.19330  0.44380  Biso   1.000  H
  H3       1.0000 0.16460  0.38650  0.78800  Biso   1.000  H
  H4       1.0000 0.18180  0.50730  0.78860  Biso   1.000  H
  H5       1.0000 0.40560  0.15470  0.15460  Biso   1.000  H
  H6       1.0000 0.52890  0.25050  0.44380  Biso   1.000  H
  H7       1.0000 0.62340  0.40150  0.78800  Biso   1.000  H
  H8       1.0000 0.60680  0.28130  0.78860  Biso   1.000  H
  H9       1.0000 0.99990  0.40560  0.15460  Biso   1.000  H
  H10      1.0000 0.19330  0.52890  0.44380  Biso   1.000  H
  H11      1.0000 0.38650  0.62340  0.78800  Biso   1.000  H
  H12      1.0000 0.50730  0.60680  0.78860  Biso   1.000  H
  H13      1.0000 0.15470  0.74900  0.15460  Biso   1.000  H
  H14      1.0000 0.25050  0.91490  0.44380  Biso   1.000  H
  H15      1.0000 0.40150  0.16460  0.78800  Biso   1.000  H
  H16      1.0000 0.28130  0.18180  0.78860  Biso   1.000  H
  H17      1.0000 0.25100  0.00010  0.84540  Biso   1.000  H
  H18      1.0000 0.08510  0.80670  0.55620  Biso   1.000  H
  H19      1.0000 0.83540  0.61350  0.21200  Biso   1.000  H
  H20      1.0000 0.81820  0.49270  0.21140  Biso   1.000  H
  H21      1.0000 0.59440  0.84530  0.84540  Biso   1.000  H
  H22      1.0000 0.47110  0.74950  0.55620  Biso   1.000  H
  H23      1.0000 0.37660  0.59850  0.21200  Biso   1.000  H
  H24      1.0000 0.39320  0.71870  0.21140  Biso   1.000  H
  H25      1.0000 0.00010  0.59440  0.84540  Biso   1.000  H
  H26      1.0000 0.80670  0.47110  0.55620  Biso   1.000  H
  H27      1.0000 0.61350  0.37660  0.21200  Biso   1.000  H
  H28      1.0000 0.49270  0.39320  0.21140  Biso   1.000  H
  H29      1.0000 0.84530  0.25100  0.84540  Biso   1.000  H
  H30      1.0000 0.74950  0.08510  0.55620  Biso   1.000  H
  H31      1.0000 0.59850  0.83540  0.21200  Biso   1.000  H
  H32      1.0000 0.71870  0.81820  0.21140  Biso   1.000  H
  H33      1.0000 0.64480  0.83140  0.00000  Biso   1.000  H
  H34      1.0000 0.68050  0.20190  0.00000  Biso   1.000  H
  H35      1.0000 0.35520  0.16860  1.00000  Biso   1.000  H
  H36      1.0000 0.31950  0.79810  0.00000  Biso   1.000  H
  H37      1.0000 0.83140  0.35520  0.00000  Biso   1.000  H
  H38      1.0000 0.20190  0.31950  0.00000  Biso   1.000  H
  H39      1.0000 0.16860  0.64480  1.00000  Biso   1.000  H
  H40      1.0000 0.79810  0.68050  0.00000  Biso   1.000  H
  C1       1.0000 0.72245  0.11635  0.09290  Biso   1.000  C
  C2       1.0000 0.71500  0.00680  0.09160  Biso   1.000  C
  C3       1.0000 0.07630  0.38490  0.65420  Biso   1.000  C
  C4       1.0000 0.96215  0.26435  0.50210  Biso   1.000  C
  C5       1.0000 0.77890  0.24260  0.18720  Biso   1.000  C
  C6       1.0000 0.37045  0.97655  0.09290  Biso   1.000  C
  C7       1.0000 0.37660  0.08480  0.09160  Biso   1.000  C
  C8       1.0000 0.57790  0.26930  0.65420  Biso   1.000  C
  C9       1.0000 0.53995  0.23775  0.50210  Biso   1.000  C
  C10      1.0000 0.40830  0.94460  0.18720  Biso   1.000  C
  C11      1.0000 0.11635  0.37045  0.09290  Biso   1.000  C
  C12      1.0000 0.00680  0.37660  0.09160  Biso   1.000  C
  C13      1.0000 0.38490  0.57790  0.65420  Biso   1.000  C
  C14      1.0000 0.26435  0.53995  0.50210  Biso   1.000  C
  C15      1.0000 0.24260  0.40830  0.18720  Biso   1.000  C
  C16      1.0000 0.97655  0.72245  0.09290  Biso   1.000  C
  C17      1.0000 0.08480  0.71500  0.09160  Biso   1.000  C
  C18      1.0000 0.26930  0.07630  0.65420  Biso   1.000  C
  C19      1.0000 0.23775  0.96215  0.50210  Biso   1.000  C
  C20      1.0000 0.94460  0.77890  0.18720  Biso   1.000  C
  C21      1.0000 0.27755  0.88365  0.90710  Biso   1.000  C
  C22      1.0000 0.28500  0.99320  0.90840  Biso   1.000  C
  C23      1.0000 0.92370  0.61510  0.34580  Biso   1.000  C
  C24      1.0000 0.03785  0.73565  0.49790  Biso   1.000  C
  C25      1.0000 0.22110  0.75740  0.81280  Biso   1.000  C
  C26      1.0000 0.62955  0.02345  0.90710  Biso   1.000  C
  C27      1.0000 0.62340  0.91520  0.90840  Biso   1.000  C
  C28      1.0000 0.42210  0.73070  0.34580  Biso   1.000  C
  C29      1.0000 0.46005  0.76225  0.49790  Biso   1.000  C
  C30      1.0000 0.59170  0.05540  0.81280  Biso   1.000  C
  C31      1.0000 0.88365  0.62955  0.90710  Biso   1.000  C
  C32      1.0000 0.99320  0.62340  0.90840  Biso   1.000  C
  C33      1.0000 0.61510  0.42210  0.34580  Biso   1.000  C
  C34      1.0000 0.73565  0.46005  0.49790  Biso   1.000  C
  C35      1.0000 0.75740  0.59170  0.81280  Biso   1.000  C
  C36      1.0000 0.02345  0.27755  0.90710  Biso   1.000  C
  C37      1.0000 0.91520  0.28500  0.90840  Biso   1.000  C
  C38      1.0000 0.73070  0.92370  0.34580  Biso   1.000  C
  C39      1.0000 0.76225  0.03785  0.49790  Biso   1.000  C
  C40      1.0000 0.05540  0.22110  0.81280  Biso   1.000  C
  C41      1.0000 0.65890  0.90600  1.00000  Biso   1.000  C
  C42      1.0000 0.67790  0.12600  0.00000  Biso   1.000  C
  C43      1.0000 0.34110  0.09400  1.00000  Biso   1.000  C
  C44      1.0000 0.32210  0.87400  0.00000  Biso   1.000  C
  C45      1.0000 0.90600  0.34110  0.00000  Biso   1.000  C
  C46      1.0000 0.12600  0.32210  0.00000  Biso   1.000  C
  C47      1.0000 0.09400  0.65890  0.00000  Biso   1.000  C
  C48      1.0000 0.87400  0.67790  0.00000  Biso   1.000  C
  N1       1.0000 0.97457  0.36517  0.49814  Biso   1.000  N
  N2       1.0000 0.05010  0.44780  0.59900  Biso   1.000  N
  N3       1.0000 0.02296  0.27066  0.59732  Biso   1.000  N
  N4       1.0000 0.14934  0.43164  0.75528  Biso   1.000  N
  N5       1.0000 0.52357  0.13297  0.49814  Biso   1.000  N
  N6       1.0000 0.54890  0.15120  0.59900  Biso   1.000  N
  N7       1.0000 0.57436  0.32666  0.59732  Biso   1.000  N
  N8       1.0000 0.60594  0.32364  0.75528  Biso   1.000  N
  N9       1.0000 0.36517  0.52357  0.49814  Biso   1.000  N
  N10      1.0000 0.44780  0.54890  0.59900  Biso   1.000  N
  N11      1.0000 0.27066  0.57436  0.59732  Biso   1.000  N
  N12      1.0000 0.43164  0.60594  0.75528  Biso   1.000  N
  N13      1.0000 0.13297  0.97457  0.49814  Biso   1.000  N
  N14      1.0000 0.15120  0.05010  0.59900  Biso   1.000  N
  N15      1.0000 0.32666  0.02296  0.59732  Biso   1.000  N
  N16      1.0000 0.32364  0.14934  0.75528  Biso   1.000  N
  N17      1.0000 0.02543  0.63483  0.50186  Biso   1.000  N
  N18      1.0000 0.94990  0.55220  0.40100  Biso   1.000  N
  N19      1.0000 0.97704  0.72934  0.40268  Biso   1.000  N
  N20      1.0000 0.85066  0.56836  0.24472  Biso   1.000  N
  N21      1.0000 0.47643  0.86703  0.50186  Biso   1.000  N
  N22      1.0000 0.45110  0.84880  0.40100  Biso   1.000  N
  N23      1.0000 0.42564  0.67334  0.40268  Biso   1.000  N
  N24      1.0000 0.39406  0.67636  0.24472  Biso   1.000  N
  N25      1.0000 0.63483  0.47643  0.50186  Biso   1.000  N
  N26      1.0000 0.55220  0.45110  0.40100  Biso   1.000  N
  N27      1.0000 0.72934  0.42564  0.40268  Biso   1.000  N
  N28      1.0000 0.56836  0.39406  0.24472  Biso   1.000  N
  N29      1.0000 0.86703  0.02543  0.50186  Biso   1.000  N
  N30      1.0000 0.84880  0.94990  0.40100  Biso   1.000  N
  N31      1.0000 0.67334  0.97704  0.40268  Biso   1.000  N
  N32      1.0000 0.67636  0.85066  0.24472  Biso   1.000  N
  O1       1.0000 0.75240  0.33780  0.18160  Biso   1.000  O
  O2       1.0000 0.84290  0.23770  0.27140  Biso   1.000  O
  O3       1.0000 0.42920  0.84380  0.18160  Biso   1.000  O
  O4       1.0000 0.42850  0.03370  0.27140  Biso   1.000  O
  O5       1.0000 0.33780  0.42920  0.18160  Biso   1.000  O
  O6       1.0000 0.23770  0.42850  0.27140  Biso   1.000  O
  O7       1.0000 0.84380  0.75240  0.18160  Biso   1.000  O
  O8       1.0000 0.03370  0.84290  0.27140  Biso   1.000  O
  O9       1.0000 0.24760  0.66220  0.81840  Biso   1.000  O
  O10      1.0000 0.15710  0.76230  0.72860  Biso   1.000  O
  O11      1.0000 0.57080  0.15620  0.81840  Biso   1.000  O
  O12      1.0000 0.57150  0.96630  0.72860  Biso   1.000  O
  O13      1.0000 0.66220  0.57080  0.81840  Biso   1.000  O
  O14      1.0000 0.76230  0.57150  0.72860  Biso   1.000  O
  O15      1.0000 0.15620  0.24760  0.81840  Biso   1.000  O
  O16      1.0000 0.96630  0.15710  0.72860  Biso   1.000  O
