data_image0
_cell_length_a       13.1489
_cell_length_b       13.1489
_cell_length_c       13.1489
_cell_angle_alpha    60
_cell_angle_beta     60
_cell_angle_gamma    60

_symmetry_space_group_name_H-M    P 1
_symmetry_int_tables_number       1

loop_
  _symmetry_equiv_pos_as_xyz
  'x, y, z'

loop_
  _atom_site_label
  _atom_site_occupancy
  _atom_site_fract_x
  _atom_site_fract_y
  _atom_site_fract_z
  _atom_site_thermal_displace_type
  _atom_site_B_iso_or_equiv
  _atom_site_type_symbol
  Cd1      1.0000 0.50000  0.50000  0.50000  Biso   1.000  Cd
  Cd2      1.0000 0.00000  1.00000  0.50000  Biso   1.000  Cd
  Cd3      1.0000 0.00000  0.50000  0.00000  Biso   1.000  Cd
  Cd4      1.0000 0.00000  0.50000  0.50000  Biso   1.000  Cd
  Cd5      1.0000 0.12500  0.62500  0.62500  Biso   1.000  Cd
  Cd6      1.0000 0.87500  0.37500  0.37500  Biso   1.000  Cd
  H1       1.0000 0.49540  0.34740  0.80980  Biso   1.000  H
  H2       1.0000 0.84740  0.99540  0.34740  Biso   1.000  H
  H3       1.0000 0.30980  0.34740  0.99540  Biso   1.000  H
  H4       1.0000 0.84740  0.80980  0.34740  Biso   1.000  H
  H5       1.0000 0.49540  0.80980  0.34740  Biso   1.000  H
  H6       1.0000 0.84740  0.34740  0.80980  Biso   1.000  H
  H7       1.0000 0.30980  0.99540  0.34740  Biso   1.000  H
  H8       1.0000 0.84740  0.34740  0.99540  Biso   1.000  H
  H9       1.0000 0.49540  0.34740  0.34740  Biso   1.000  H
  H10      1.0000 0.84740  0.80980  0.99540  Biso   1.000  H
  H11      1.0000 0.30980  0.34740  0.34740  Biso   1.000  H
  H12      1.0000 0.84740  0.99540  0.80980  Biso   1.000  H
  H13      1.0000 0.15260  0.00460  0.19020  Biso   1.000  H
  H14      1.0000 0.50460  0.65260  0.65260  Biso   1.000  H
  H15      1.0000 0.15260  0.19020  0.00460  Biso   1.000  H
  H16      1.0000 0.69020  0.65260  0.65260  Biso   1.000  H
  H17      1.0000 0.69020  0.00460  0.65260  Biso   1.000  H
  H18      1.0000 0.15260  0.65260  0.19020  Biso   1.000  H
  H19      1.0000 0.50460  0.19020  0.65260  Biso   1.000  H
  H20      1.0000 0.15260  0.65260  0.00460  Biso   1.000  H
  H21      1.0000 0.15260  0.00460  0.65260  Biso   1.000  H
  H22      1.0000 0.69020  0.65260  0.00460  Biso   1.000  H
  H23      1.0000 0.15260  0.19020  0.65260  Biso   1.000  H
  H24      1.0000 0.50460  0.65260  0.19020  Biso   1.000  H
  C1       1.0000 0.41330  0.38770  0.81130  Biso   1.000  C
  C2       1.0000 0.88770  0.91330  0.38770  Biso   1.000  C
  C3       1.0000 0.31130  0.38770  0.91330  Biso   1.000  C
  C4       1.0000 0.88770  0.81130  0.38770  Biso   1.000  C
  C5       1.0000 0.41330  0.81130  0.38770  Biso   1.000  C
  C6       1.0000 0.88770  0.38770  0.81130  Biso   1.000  C
  C7       1.0000 0.31130  0.91330  0.38770  Biso   1.000  C
  C8       1.0000 0.88770  0.38770  0.91330  Biso   1.000  C
  C9       1.0000 0.41330  0.38770  0.38770  Biso   1.000  C
  C10      1.0000 0.88770  0.81130  0.91330  Biso   1.000  C
  C11      1.0000 0.31130  0.38770  0.38770  Biso   1.000  C
  C12      1.0000 0.88770  0.91330  0.81130  Biso   1.000  C
  C13      1.0000 0.11230  0.08670  0.18870  Biso   1.000  C
  C14      1.0000 0.58670  0.61230  0.61230  Biso   1.000  C
  C15      1.0000 0.11230  0.18870  0.08670  Biso   1.000  C
  C16      1.0000 0.68870  0.61230  0.61230  Biso   1.000  C
  C17      1.0000 0.68870  0.08670  0.61230  Biso   1.000  C
  C18      1.0000 0.11230  0.61230  0.18870  Biso   1.000  C
  C19      1.0000 0.58670  0.18870  0.61230  Biso   1.000  C
  C20      1.0000 0.11230  0.61230  0.08670  Biso   1.000  C
  C21      1.0000 0.11230  0.08670  0.61230  Biso   1.000  C
  C22      1.0000 0.68870  0.61230  0.08670  Biso   1.000  C
  C23      1.0000 0.11230  0.18870  0.61230  Biso   1.000  C
  C24      1.0000 0.58670  0.61230  0.18870  Biso   1.000  C
  N1       1.0000 0.37480  0.45780  0.70960  Biso   1.000  N
  N2       1.0000 0.95780  0.87480  0.45780  Biso   1.000  N
  N3       1.0000 0.20960  0.45780  0.87480  Biso   1.000  N
  N4       1.0000 0.95780  0.70960  0.45780  Biso   1.000  N
  N5       1.0000 0.37480  0.70960  0.45780  Biso   1.000  N
  N6       1.0000 0.95780  0.45780  0.70960  Biso   1.000  N
  N7       1.0000 0.20960  0.87480  0.45780  Biso   1.000  N
  N8       1.0000 0.95780  0.45780  0.87480  Biso   1.000  N
  N9       1.0000 0.37480  0.45780  0.45780  Biso   1.000  N
  N10      1.0000 0.95780  0.70960  0.87480  Biso   1.000  N
  N11      1.0000 0.20960  0.45780  0.45780  Biso   1.000  N
  N12      1.0000 0.95780  0.87480  0.70960  Biso   1.000  N
  N13      1.0000 0.04220  0.12520  0.29040  Biso   1.000  N
  N14      1.0000 0.62520  0.54220  0.54220  Biso   1.000  N
  N15      1.0000 0.04220  0.29040  0.12520  Biso   1.000  N
  N16      1.0000 0.79040  0.54220  0.54220  Biso   1.000  N
  N17      1.0000 0.79040  0.12520  0.54220  Biso   1.000  N
  N18      1.0000 0.04220  0.54220  0.29040  Biso   1.000  N
  N19      1.0000 0.62520  0.29040  0.54220  Biso   1.000  N
  N20      1.0000 0.04220  0.54220  0.12520  Biso   1.000  N
  N21      1.0000 0.04220  0.12520  0.54220  Biso   1.000  N
  N22      1.0000 0.79040  0.54220  0.12520  Biso   1.000  N
  N23      1.0000 0.04220  0.29040  0.54220  Biso   1.000  N
  N24      1.0000 0.62520  0.54220  0.29040  Biso   1.000  N
  N25      1.0000 0.25210  0.49790  0.75210  Biso   1.000  N
  N26      1.0000 0.99790  0.75210  0.49790  Biso   1.000  N
  N27      1.0000 0.25210  0.75210  0.49790  Biso   1.000  N
  N28      1.0000 0.99790  0.49790  0.75210  Biso   1.000  N
  N29      1.0000 0.25210  0.49790  0.49790  Biso   1.000  N
  N30      1.0000 0.99790  0.75210  0.75210  Biso   1.000  N
  N31      1.0000 0.00210  0.24790  0.24790  Biso   1.000  N
  N32      1.0000 0.74790  0.50210  0.50210  Biso   1.000  N
  N33      1.0000 0.74790  0.24790  0.50210  Biso   1.000  N
  N34      1.0000 0.00210  0.50210  0.24790  Biso   1.000  N
  N35      1.0000 0.00210  0.24790  0.50210  Biso   1.000  N
  N36      1.0000 0.74790  0.50210  0.24790  Biso   1.000  N
