data_image0
_cell_length_a       12.3464
_cell_length_b       12.4871
_cell_length_c       14.0082
_cell_angle_alpha    90
_cell_angle_beta     113.763
_cell_angle_gamma    90

_symmetry_space_group_name_H-M    P 1
_symmetry_int_tables_number       1

loop_
  _symmetry_equiv_pos_as_xyz
  'x, y, z'

loop_
  _atom_site_label
  _atom_site_occupancy
  _atom_site_fract_x
  _atom_site_fract_y
  _atom_site_fract_z
  _atom_site_thermal_displace_type
  _atom_site_B_iso_or_equiv
  _atom_site_type_symbol
  Cd1      1.0000 0.00000  0.00000  0.00000  Biso   1.000  Cd
  Cd2      1.0000 0.50000  0.50000  0.00000  Biso   1.000  Cd
  H1       1.0000 0.87700  0.00300  0.46900  Biso   1.000  H
  H2       1.0000 0.65940  0.04370  0.96100  Biso   1.000  H
  H3       1.0000 0.47120  0.82580  0.03830  Biso   1.000  H
  H4       1.0000 0.79820  0.02370  0.59490  Biso   1.000  H
  H5       1.0000 0.82020  0.02210  0.76630  Biso   1.000  H
  H6       1.0000 0.15500  0.96820  0.86230  Biso   1.000  H
  H7       1.0000 0.14260  0.96790  0.69510  Biso   1.000  H
  H8       1.0000 0.62300  0.50300  0.53100  Biso   1.000  H
  H9       1.0000 0.84060  0.54370  0.03900  Biso   1.000  H
  H10      1.0000 0.02880  0.32580  0.96170  Biso   1.000  H
  H11      1.0000 0.70180  0.52370  0.40510  Biso   1.000  H
  H12      1.0000 0.67980  0.52210  0.23370  Biso   1.000  H
  H13      1.0000 0.34500  0.46820  0.13770  Biso   1.000  H
  H14      1.0000 0.35740  0.46790  0.30490  Biso   1.000  H
  H15      1.0000 0.12300  0.99700  0.53100  Biso   1.000  H
  H16      1.0000 0.34060  0.95630  0.03900  Biso   1.000  H
  H17      1.0000 0.52880  0.17420  0.96170  Biso   1.000  H
  H18      1.0000 0.20180  0.97630  0.40510  Biso   1.000  H
  H19      1.0000 0.17980  0.97790  0.23370  Biso   1.000  H
  H20      1.0000 0.84500  0.03180  0.13770  Biso   1.000  H
  H21      1.0000 0.85740  0.03210  0.30490  Biso   1.000  H
  H22      1.0000 0.37700  0.49700  0.46900  Biso   1.000  H
  H23      1.0000 0.15940  0.45630  0.96100  Biso   1.000  H
  H24      1.0000 0.97120  0.67420  0.03830  Biso   1.000  H
  H25      1.0000 0.29820  0.47630  0.59490  Biso   1.000  H
  H26      1.0000 0.32020  0.47790  0.76630  Biso   1.000  H
  H27      1.0000 0.65500  0.53180  0.86230  Biso   1.000  H
  H28      1.0000 0.64260  0.53210  0.69510  Biso   1.000  H
  C1       1.0000 0.59520  0.02560  0.97650  Biso   1.000  C
  C2       1.0000 0.64800  0.72950  0.02250  Biso   1.000  C
  C3       1.0000 0.75950  0.86020  0.97360  Biso   1.000  C
  C4       1.0000 0.48290  0.89600  0.02250  Biso   1.000  C
  C5       1.0000 0.87240  0.01270  0.64820  Biso   1.000  C
  C6       1.0000 0.97120  0.99750  0.62550  Biso   1.000  C
  C7       1.0000 0.88670  0.01140  0.75200  Biso   1.000  C
  C8       1.0000 0.08170  0.98000  0.80790  Biso   1.000  C
  C9       1.0000 0.66310  0.83500  0.99780  Biso   1.000  C
  C10      1.0000 0.07470  0.98010  0.70690  Biso   1.000  C
  C11      1.0000 0.57880  0.91980  0.99840  Biso   1.000  C
  C12      1.0000 0.95720  0.00230  0.51530  Biso   1.000  C
  C13      1.0000 0.90480  0.52560  0.02350  Biso   1.000  C
  C14      1.0000 0.85200  0.22950  0.97750  Biso   1.000  C
  C15      1.0000 0.74050  0.36020  0.02640  Biso   1.000  C
  C16      1.0000 0.01710  0.39600  0.97750  Biso   1.000  C
  C17      1.0000 0.62760  0.51270  0.35180  Biso   1.000  C
  C18      1.0000 0.52880  0.49750  0.37450  Biso   1.000  C
  C19      1.0000 0.61330  0.51140  0.24800  Biso   1.000  C
  C20      1.0000 0.41830  0.48000  0.19210  Biso   1.000  C
  C21      1.0000 0.83690  0.33500  0.00220  Biso   1.000  C
  C22      1.0000 0.42530  0.48010  0.29310  Biso   1.000  C
  C23      1.0000 0.92120  0.41980  0.00160  Biso   1.000  C
  C24      1.0000 0.54280  0.50230  0.48470  Biso   1.000  C
  C25      1.0000 0.40480  0.97440  0.02350  Biso   1.000  C
  C26      1.0000 0.35200  0.27050  0.97750  Biso   1.000  C
  C27      1.0000 0.24050  0.13980  0.02640  Biso   1.000  C
  C28      1.0000 0.51710  0.10400  0.97750  Biso   1.000  C
  C29      1.0000 0.12760  0.98730  0.35180  Biso   1.000  C
  C30      1.0000 0.02880  0.00250  0.37450  Biso   1.000  C
  C31      1.0000 0.11330  0.98860  0.24800  Biso   1.000  C
  C32      1.0000 0.91830  0.02000  0.19210  Biso   1.000  C
  C33      1.0000 0.33690  0.16500  0.00220  Biso   1.000  C
  C34      1.0000 0.92530  0.01990  0.29310  Biso   1.000  C
  C35      1.0000 0.42120  0.08020  0.00160  Biso   1.000  C
  C36      1.0000 0.04280  0.99770  0.48470  Biso   1.000  C
  C37      1.0000 0.09520  0.47440  0.97650  Biso   1.000  C
  C38      1.0000 0.14800  0.77050  0.02250  Biso   1.000  C
  C39      1.0000 0.25950  0.63980  0.97360  Biso   1.000  C
  C40      1.0000 0.98290  0.60400  0.02250  Biso   1.000  C
  C41      1.0000 0.37240  0.48730  0.64820  Biso   1.000  C
  C42      1.0000 0.47120  0.50250  0.62550  Biso   1.000  C
  C43      1.0000 0.38670  0.48860  0.75200  Biso   1.000  C
  C44      1.0000 0.58170  0.52000  0.80790  Biso   1.000  C
  C45      1.0000 0.16310  0.66500  0.99780  Biso   1.000  C
  C46      1.0000 0.57470  0.51990  0.70690  Biso   1.000  C
  C47      1.0000 0.07880  0.58020  0.99840  Biso   1.000  C
  C48      1.0000 0.45720  0.49770  0.51530  Biso   1.000  C
  N1       1.0000 0.98870  0.99580  0.83070  Biso   1.000  N
  N2       1.0000 0.83780  0.88650  0.95190  Biso   1.000  N
  N3       1.0000 0.63220  0.64380  0.04510  Biso   1.000  N
  N4       1.0000 0.51130  0.49580  0.16930  Biso   1.000  N
  N5       1.0000 0.66220  0.38650  0.04810  Biso   1.000  N
  N6       1.0000 0.86780  0.14380  0.95490  Biso   1.000  N
  N7       1.0000 0.01130  0.00420  0.16930  Biso   1.000  N
  N8       1.0000 0.16220  0.11350  0.04810  Biso   1.000  N
  N9       1.0000 0.36780  0.35620  0.95490  Biso   1.000  N
  N10      1.0000 0.48870  0.50420  0.83070  Biso   1.000  N
  N11      1.0000 0.33780  0.61350  0.95190  Biso   1.000  N
  N12      1.0000 0.13220  0.85620  0.04510  Biso   1.000  N
