data_image0
_cell_length_a       18.7088
_cell_length_b       18.7088
_cell_length_c       38.2664
_cell_angle_alpha    90
_cell_angle_beta     90
_cell_angle_gamma    120

_symmetry_space_group_name_H-M    "P 1"
_symmetry_int_tables_number       1

loop_
  _symmetry_equiv_pos_as_xyz
  'x, y, z'

loop_
  _atom_site_label
  _atom_site_occupancy
  _atom_site_fract_x
  _atom_site_fract_y
  _atom_site_fract_z
  _atom_site_thermal_displace_type
  _atom_site_B_iso_or_equiv
  _atom_site_type_symbol
  O1       1.0000 0.70509  0.55621  0.67042  Biso   1.000  O
  O2       1.0000 0.74402  0.63523  0.62252  Biso   1.000  O
  C1       1.0000 0.69401  0.57354  0.63991  Biso   1.000  C
  C2       1.0000 0.61420  0.51456  0.62250  Biso   1.000  C
  C3       1.0000 0.59878  0.52920  0.58829  Biso   1.000  C
  H1       1.0000 0.63670  0.57750  0.57700  Biso   1.000  H
  C4       1.0000 0.54120  0.56390  0.52205  Biso   1.000  C
  H2       1.0000 0.55850  0.61510  0.53400  Biso   1.000  H
  C5       1.0000 0.57740  0.52960  0.51215  Biso   1.000  C
  H3       1.0000 0.63370  0.54180  0.51330  Biso   1.000  H
  H4       1.0000 0.73990  0.56950  0.74560  Biso   1.000  H
  H5       1.0000 0.76270  0.50140  0.75080  Biso   1.000  H
  N1       1.0000 0.52960  0.57740  0.48785  Biso   1.000  N
  O3       1.0000 0.37176  0.88954  0.00375  Biso   1.000  O
  O4       1.0000 0.41069  0.96856  0.95585  Biso   1.000  O
  C6       1.0000 0.36068  0.90687  0.97324  Biso   1.000  C
  C7       1.0000 0.28087  0.84789  0.95583  Biso   1.000  C
  C8       1.0000 0.26545  0.86253  0.92162  Biso   1.000  C
  H6       1.0000 0.30337  0.91083  0.91033  Biso   1.000  H
  C9       1.0000 0.20787  0.89723  0.85538  Biso   1.000  C
  H7       1.0000 0.22517  0.94843  0.86733  Biso   1.000  H
  C10      1.0000 0.24407  0.86293  0.84548  Biso   1.000  C
  H8       1.0000 0.30037  0.87513  0.84663  Biso   1.000  H
  H9       1.0000 0.40657  0.90283  0.07893  Biso   1.000  H
  H10      1.0000 0.42937  0.83473  0.08413  Biso   1.000  H
  N2       1.0000 0.19627  0.91073  0.82118  Biso   1.000  N
  O5       1.0000 0.03842  0.22288  0.33709  Biso   1.000  O
  O6       1.0000 0.07735  0.30190  0.28919  Biso   1.000  O
  C11      1.0000 0.02734  0.24021  0.30658  Biso   1.000  C
  C12      1.0000 0.94753  0.18123  0.28917  Biso   1.000  C
  C13      1.0000 0.93211  0.19587  0.25496  Biso   1.000  C
  H11      1.0000 0.97003  0.24417  0.24367  Biso   1.000  H
  C14      1.0000 0.87453  0.23057  0.18872  Biso   1.000  C
  H12      1.0000 0.89183  0.28177  0.20067  Biso   1.000  H
  C15      1.0000 0.91073  0.19627  0.17882  Biso   1.000  C
  H13      1.0000 0.96703  0.20847  0.17997  Biso   1.000  H
  H14      1.0000 0.07323  0.23617  0.41227  Biso   1.000  H
  H15      1.0000 0.09603  0.16807  0.41747  Biso   1.000  H
  N3       1.0000 0.86293  0.24407  0.15452  Biso   1.000  N
  O7       1.0000 0.44379  0.14888  0.67042  Biso   1.000  O
  O8       1.0000 0.36477  0.10879  0.62252  Biso   1.000  O
  C16      1.0000 0.42646  0.12047  0.63991  Biso   1.000  C
  C17      1.0000 0.48544  0.09964  0.62250  Biso   1.000  C
  C18      1.0000 0.47080  0.06958  0.58829  Biso   1.000  C
  H16      1.0000 0.42250  0.05920  0.57700  Biso   1.000  H
  C19      1.0000 0.43610  0.97730  0.52205  Biso   1.000  C
  H17      1.0000 0.38490  0.94340  0.53400  Biso   1.000  H
  C20      1.0000 0.47040  0.04780  0.51215  Biso   1.000  C
  H18      1.0000 0.45820  0.09190  0.51330  Biso   1.000  H
  H19      1.0000 0.43050  0.17040  0.74560  Biso   1.000  H
  H20      1.0000 0.49860  0.26130  0.75080  Biso   1.000  H
  N4       1.0000 0.42260  0.95220  0.48785  Biso   1.000  N
  O9       1.0000 0.11046  0.48221  0.00375  Biso   1.000  O
  O10      1.0000 0.03144  0.44212  0.95585  Biso   1.000  O
  C21      1.0000 0.09313  0.45380  0.97324  Biso   1.000  C
  C22      1.0000 0.15211  0.43297  0.95583  Biso   1.000  C
  C23      1.0000 0.13747  0.40291  0.92162  Biso   1.000  C
  H21      1.0000 0.08917  0.39253  0.91033  Biso   1.000  H
  C24      1.0000 0.10277  0.31063  0.85538  Biso   1.000  C
  H22      1.0000 0.05157  0.27673  0.86733  Biso   1.000  H
  C25      1.0000 0.13707  0.38113  0.84548  Biso   1.000  C
  H23      1.0000 0.12487  0.42523  0.84663  Biso   1.000  H
  H24      1.0000 0.09717  0.50373  0.07893  Biso   1.000  H
  H25      1.0000 0.16527  0.59463  0.08413  Biso   1.000  H
  N5       1.0000 0.08927  0.28553  0.82118  Biso   1.000  N
  O11      1.0000 0.77712  0.81555  0.33709  Biso   1.000  O
  O12      1.0000 0.69810  0.77546  0.28919  Biso   1.000  O
  C26      1.0000 0.75979  0.78714  0.30658  Biso   1.000  C
  C27      1.0000 0.81877  0.76631  0.28917  Biso   1.000  C
  C28      1.0000 0.80413  0.73625  0.25496  Biso   1.000  C
  H26      1.0000 0.75583  0.72587  0.24367  Biso   1.000  H
  C29      1.0000 0.76943  0.64397  0.18872  Biso   1.000  C
  H27      1.0000 0.71823  0.61007  0.20067  Biso   1.000  H
  C30      1.0000 0.80373  0.71447  0.17882  Biso   1.000  C
  H28      1.0000 0.79153  0.75857  0.17997  Biso   1.000  H
  H29      1.0000 0.76383  0.83707  0.41227  Biso   1.000  H
  H30      1.0000 0.83193  0.92797  0.41747  Biso   1.000  H
  N6       1.0000 0.75593  0.61887  0.15452  Biso   1.000  N
  O13      1.0000 0.85112  0.29491  0.67042  Biso   1.000  O
  O14      1.0000 0.89121  0.25598  0.62252  Biso   1.000  O
  C31      1.0000 0.87953  0.30599  0.63991  Biso   1.000  C
  C32      1.0000 0.90036  0.38580  0.62250  Biso   1.000  C
  C33      1.0000 0.93042  0.40122  0.58829  Biso   1.000  C
  H31      1.0000 0.94080  0.36330  0.57700  Biso   1.000  H
  C34      1.0000 0.02270  0.45880  0.52205  Biso   1.000  C
  H32      1.0000 0.05660  0.44150  0.53400  Biso   1.000  H
  C35      1.0000 0.95220  0.42260  0.51215  Biso   1.000  C
  H33      1.0000 0.90810  0.36630  0.51330  Biso   1.000  H
  H34      1.0000 0.82960  0.26010  0.74560  Biso   1.000  H
  H35      1.0000 0.73870  0.23730  0.75080  Biso   1.000  H
  N7       1.0000 0.04780  0.47040  0.48785  Biso   1.000  N
  O15      1.0000 0.51779  0.62824  0.00375  Biso   1.000  O
  O16      1.0000 0.55788  0.58931  0.95585  Biso   1.000  O
  C36      1.0000 0.54620  0.63932  0.97324  Biso   1.000  C
  C37      1.0000 0.56703  0.71913  0.95583  Biso   1.000  C
  C38      1.0000 0.59709  0.73455  0.92162  Biso   1.000  C
  H36      1.0000 0.60747  0.69663  0.91033  Biso   1.000  H
  C39      1.0000 0.68937  0.79213  0.85538  Biso   1.000  C
  H37      1.0000 0.72327  0.77483  0.86733  Biso   1.000  H
  C40      1.0000 0.61887  0.75593  0.84548  Biso   1.000  C
  H38      1.0000 0.57477  0.69963  0.84663  Biso   1.000  H
  H39      1.0000 0.49627  0.59343  0.07893  Biso   1.000  H
  H40      1.0000 0.40537  0.57063  0.08413  Biso   1.000  H
  N8       1.0000 0.71447  0.80373  0.82118  Biso   1.000  N
  O17      1.0000 0.18445  0.96158  0.33709  Biso   1.000  O
  O18      1.0000 0.22454  0.92265  0.28919  Biso   1.000  O
  C41      1.0000 0.21286  0.97266  0.30658  Biso   1.000  C
  C42      1.0000 0.23369  0.05247  0.28917  Biso   1.000  C
  C43      1.0000 0.26375  0.06789  0.25496  Biso   1.000  C
  H41      1.0000 0.27413  0.02997  0.24367  Biso   1.000  H
  C44      1.0000 0.35603  0.12547  0.18872  Biso   1.000  C
  H42      1.0000 0.38993  0.10817  0.20067  Biso   1.000  H
  C45      1.0000 0.28553  0.08927  0.17882  Biso   1.000  C
  H43      1.0000 0.24143  0.03297  0.17997  Biso   1.000  H
  H44      1.0000 0.16293  0.92677  0.41227  Biso   1.000  H
  H45      1.0000 0.07203  0.90397  0.41747  Biso   1.000  H
  N9       1.0000 0.38113  0.13707  0.15452  Biso   1.000  N
  O19      1.0000 0.55621  0.70509  0.32958  Biso   1.000  O
  O20      1.0000 0.63523  0.74402  0.37748  Biso   1.000  O
  C46      1.0000 0.57354  0.69401  0.36009  Biso   1.000  C
  C47      1.0000 0.51456  0.61420  0.37750  Biso   1.000  C
  C48      1.0000 0.52920  0.59878  0.41171  Biso   1.000  C
  H46      1.0000 0.57750  0.63670  0.42300  Biso   1.000  H
  C49      1.0000 0.56390  0.54120  0.47795  Biso   1.000  C
  H47      1.0000 0.61510  0.55850  0.46600  Biso   1.000  H
  H48      1.0000 0.54180  0.63370  0.48670  Biso   1.000  H
  H49      1.0000 0.56950  0.73990  0.25440  Biso   1.000  H
  H50      1.0000 0.50140  0.76270  0.24920  Biso   1.000  H
  O21      1.0000 0.22288  0.03842  0.66291  Biso   1.000  O
  O22      1.0000 0.30190  0.07735  0.71081  Biso   1.000  O
  C50      1.0000 0.24021  0.02734  0.69342  Biso   1.000  C
  C51      1.0000 0.18123  0.94753  0.71083  Biso   1.000  C
  C52      1.0000 0.19587  0.93211  0.74504  Biso   1.000  C
  H51      1.0000 0.24417  0.97003  0.75633  Biso   1.000  H
  C53      1.0000 0.23057  0.87453  0.81128  Biso   1.000  C
  H52      1.0000 0.28177  0.89183  0.79933  Biso   1.000  H
  H53      1.0000 0.20847  0.96703  0.82003  Biso   1.000  H
  H54      1.0000 0.23617  0.07323  0.58773  Biso   1.000  H
  H55      1.0000 0.16807  0.09603  0.58253  Biso   1.000  H
  O23      1.0000 0.88954  0.37176  0.99625  Biso   1.000  O
  O24      1.0000 0.96856  0.41069  0.04415  Biso   1.000  O
  C54      1.0000 0.90687  0.36068  0.02676  Biso   1.000  C
  C55      1.0000 0.84789  0.28087  0.04417  Biso   1.000  C
  C56      1.0000 0.86253  0.26545  0.07838  Biso   1.000  C
  H56      1.0000 0.91083  0.30337  0.08967  Biso   1.000  H
  C57      1.0000 0.89723  0.20787  0.14462  Biso   1.000  C
  H57      1.0000 0.94843  0.22517  0.13267  Biso   1.000  H
  H58      1.0000 0.87513  0.30037  0.15337  Biso   1.000  H
  H59      1.0000 0.90283  0.40657  0.92107  Biso   1.000  H
  H60      1.0000 0.83473  0.42937  0.91587  Biso   1.000  H
  O25      1.0000 0.14888  0.44379  0.32958  Biso   1.000  O
  O26      1.0000 0.10879  0.36477  0.37748  Biso   1.000  O
  C58      1.0000 0.12047  0.42646  0.36009  Biso   1.000  C
  C59      1.0000 0.09964  0.48544  0.37750  Biso   1.000  C
  C60      1.0000 0.06958  0.47080  0.41171  Biso   1.000  C
  H61      1.0000 0.05920  0.42250  0.42300  Biso   1.000  H
  C61      1.0000 0.97730  0.43610  0.47795  Biso   1.000  C
  H62      1.0000 0.94340  0.38490  0.46600  Biso   1.000  H
  H63      1.0000 0.09190  0.45820  0.48670  Biso   1.000  H
  H64      1.0000 0.17040  0.43050  0.25440  Biso   1.000  H
  H65      1.0000 0.26130  0.49860  0.24920  Biso   1.000  H
  O27      1.0000 0.81555  0.77712  0.66291  Biso   1.000  O
  O28      1.0000 0.77546  0.69810  0.71081  Biso   1.000  O
  C62      1.0000 0.78714  0.75979  0.69342  Biso   1.000  C
  C63      1.0000 0.76631  0.81877  0.71083  Biso   1.000  C
  C64      1.0000 0.73625  0.80413  0.74504  Biso   1.000  C
  H66      1.0000 0.72587  0.75583  0.75633  Biso   1.000  H
  C65      1.0000 0.64397  0.76943  0.81128  Biso   1.000  C
  H67      1.0000 0.61007  0.71823  0.79933  Biso   1.000  H
  H68      1.0000 0.75857  0.79153  0.82003  Biso   1.000  H
  H69      1.0000 0.83707  0.76383  0.58773  Biso   1.000  H
  H70      1.0000 0.92797  0.83193  0.58253  Biso   1.000  H
  O29      1.0000 0.48221  0.11046  0.99625  Biso   1.000  O
  O30      1.0000 0.44212  0.03144  0.04415  Biso   1.000  O
  C66      1.0000 0.45380  0.09313  0.02676  Biso   1.000  C
  C67      1.0000 0.43297  0.15211  0.04417  Biso   1.000  C
  C68      1.0000 0.40291  0.13747  0.07838  Biso   1.000  C
  H71      1.0000 0.39253  0.08917  0.08967  Biso   1.000  H
  C69      1.0000 0.31063  0.10277  0.14462  Biso   1.000  C
  H72      1.0000 0.27673  0.05157  0.13267  Biso   1.000  H
  H73      1.0000 0.42523  0.12487  0.15337  Biso   1.000  H
  H74      1.0000 0.50373  0.09717  0.92107  Biso   1.000  H
  H75      1.0000 0.59463  0.16527  0.91587  Biso   1.000  H
  O31      1.0000 0.29491  0.85112  0.32958  Biso   1.000  O
  O32      1.0000 0.25598  0.89121  0.37748  Biso   1.000  O
  C70      1.0000 0.30599  0.87953  0.36009  Biso   1.000  C
  C71      1.0000 0.38580  0.90036  0.37750  Biso   1.000  C
  C72      1.0000 0.40122  0.93042  0.41171  Biso   1.000  C
  H76      1.0000 0.36330  0.94080  0.42300  Biso   1.000  H
  C73      1.0000 0.45880  0.02270  0.47795  Biso   1.000  C
  H77      1.0000 0.44150  0.05660  0.46600  Biso   1.000  H
  H78      1.0000 0.36630  0.90810  0.48670  Biso   1.000  H
  H79      1.0000 0.26010  0.82960  0.25440  Biso   1.000  H
  H80      1.0000 0.23730  0.73870  0.24920  Biso   1.000  H
  O33      1.0000 0.96158  0.18445  0.66291  Biso   1.000  O
  O34      1.0000 0.92265  0.22454  0.71081  Biso   1.000  O
  C74      1.0000 0.97266  0.21286  0.69342  Biso   1.000  C
  C75      1.0000 0.05247  0.23369  0.71083  Biso   1.000  C
  C76      1.0000 0.06789  0.26375  0.74504  Biso   1.000  C
  H81      1.0000 0.02997  0.27413  0.75633  Biso   1.000  H
  C77      1.0000 0.12547  0.35603  0.81128  Biso   1.000  C
  H82      1.0000 0.10817  0.38993  0.79933  Biso   1.000  H
  H83      1.0000 0.03297  0.24143  0.82003  Biso   1.000  H
  H84      1.0000 0.92677  0.16293  0.58773  Biso   1.000  H
  H85      1.0000 0.90397  0.07203  0.58253  Biso   1.000  H
  O35      1.0000 0.62824  0.51779  0.99625  Biso   1.000  O
  O36      1.0000 0.58931  0.55788  0.04415  Biso   1.000  O
  C78      1.0000 0.63932  0.54620  0.02676  Biso   1.000  C
  C79      1.0000 0.71913  0.56703  0.04417  Biso   1.000  C
  C80      1.0000 0.73455  0.59709  0.07838  Biso   1.000  C
  H86      1.0000 0.69663  0.60747  0.08967  Biso   1.000  H
  C81      1.0000 0.79213  0.68937  0.14462  Biso   1.000  C
  H87      1.0000 0.77483  0.72327  0.13267  Biso   1.000  H
  H88      1.0000 0.69963  0.57477  0.15337  Biso   1.000  H
  H89      1.0000 0.59343  0.49627  0.92107  Biso   1.000  H
  H90      1.0000 0.57063  0.40537  0.91587  Biso   1.000  H
  O37      1.0000 0.29491  0.44379  0.32958  Biso   1.000  O
  O38      1.0000 0.25598  0.36477  0.37748  Biso   1.000  O
  C82      1.0000 0.30599  0.42646  0.36009  Biso   1.000  C
  C83      1.0000 0.38580  0.48544  0.37750  Biso   1.000  C
  C84      1.0000 0.40122  0.47080  0.41171  Biso   1.000  C
  H91      1.0000 0.36330  0.42250  0.42300  Biso   1.000  H
  C85      1.0000 0.45880  0.43610  0.47795  Biso   1.000  C
  H92      1.0000 0.44150  0.38490  0.46600  Biso   1.000  H
  C86      1.0000 0.42260  0.47040  0.48785  Biso   1.000  C
  H93      1.0000 0.36630  0.45820  0.48670  Biso   1.000  H
  H94      1.0000 0.26010  0.43050  0.25440  Biso   1.000  H
  H95      1.0000 0.23730  0.49860  0.24920  Biso   1.000  H
  N10      1.0000 0.47040  0.42260  0.51215  Biso   1.000  N
  O39      1.0000 0.96158  0.77712  0.66291  Biso   1.000  O
  O40      1.0000 0.92265  0.69810  0.71081  Biso   1.000  O
  C87      1.0000 0.97266  0.75979  0.69342  Biso   1.000  C
  C88      1.0000 0.05247  0.81877  0.71083  Biso   1.000  C
  C89      1.0000 0.06789  0.80413  0.74504  Biso   1.000  C
  H96      1.0000 0.02997  0.75583  0.75633  Biso   1.000  H
  C90      1.0000 0.12547  0.76943  0.81128  Biso   1.000  C
  H97      1.0000 0.10817  0.71823  0.79933  Biso   1.000  H
  C91      1.0000 0.08927  0.80373  0.82118  Biso   1.000  C
  H98      1.0000 0.03297  0.79153  0.82003  Biso   1.000  H
  H99      1.0000 0.92677  0.76383  0.58773  Biso   1.000  H
  H100     1.0000 0.90397  0.83193  0.58253  Biso   1.000  H
  N11      1.0000 0.13707  0.75593  0.84548  Biso   1.000  N
  O41      1.0000 0.62824  0.11046  0.99625  Biso   1.000  O
  O42      1.0000 0.58931  0.03144  0.04415  Biso   1.000  O
  C92      1.0000 0.63932  0.09313  0.02676  Biso   1.000  C
  C93      1.0000 0.71913  0.15211  0.04417  Biso   1.000  C
  C94      1.0000 0.73455  0.13747  0.07838  Biso   1.000  C
  H101     1.0000 0.69663  0.08917  0.08967  Biso   1.000  H
  C95      1.0000 0.79213  0.10277  0.14462  Biso   1.000  C
  H102     1.0000 0.77483  0.05157  0.13267  Biso   1.000  H
  C96      1.0000 0.75593  0.13707  0.15452  Biso   1.000  C
  H103     1.0000 0.69963  0.12487  0.15337  Biso   1.000  H
  H104     1.0000 0.59343  0.09717  0.92107  Biso   1.000  H
  H105     1.0000 0.57063  0.16527  0.91587  Biso   1.000  H
  N12      1.0000 0.80373  0.08927  0.17882  Biso   1.000  N
  O43      1.0000 0.55621  0.85112  0.32958  Biso   1.000  O
  O44      1.0000 0.63523  0.89121  0.37748  Biso   1.000  O
  C97      1.0000 0.57354  0.87953  0.36009  Biso   1.000  C
  C98      1.0000 0.51456  0.90036  0.37750  Biso   1.000  C
  C99      1.0000 0.52920  0.93042  0.41171  Biso   1.000  C
  H106     1.0000 0.57750  0.94080  0.42300  Biso   1.000  H
  C100     1.0000 0.56390  0.02270  0.47795  Biso   1.000  C
  H107     1.0000 0.61510  0.05660  0.46600  Biso   1.000  H
  C101     1.0000 0.52960  0.95220  0.48785  Biso   1.000  C
  H108     1.0000 0.54180  0.90810  0.48670  Biso   1.000  H
  H109     1.0000 0.56950  0.82960  0.25440  Biso   1.000  H
  H110     1.0000 0.50140  0.73870  0.24920  Biso   1.000  H
  N13      1.0000 0.57740  0.04780  0.51215  Biso   1.000  N
  O45      1.0000 0.22288  0.18445  0.66291  Biso   1.000  O
  O46      1.0000 0.30190  0.22454  0.71081  Biso   1.000  O
  C102     1.0000 0.24021  0.21286  0.69342  Biso   1.000  C
  C103     1.0000 0.18123  0.23369  0.71083  Biso   1.000  C
  C104     1.0000 0.19587  0.26375  0.74504  Biso   1.000  C
  H111     1.0000 0.24417  0.27413  0.75633  Biso   1.000  H
  C105     1.0000 0.23057  0.35603  0.81128  Biso   1.000  C
  H112     1.0000 0.28177  0.38993  0.79933  Biso   1.000  H
  C106     1.0000 0.19627  0.28553  0.82118  Biso   1.000  C
  H113     1.0000 0.20847  0.24143  0.82003  Biso   1.000  H
  H114     1.0000 0.23617  0.16293  0.58773  Biso   1.000  H
  H115     1.0000 0.16807  0.07203  0.58253  Biso   1.000  H
  N14      1.0000 0.24407  0.38113  0.84548  Biso   1.000  N
  O47      1.0000 0.88954  0.51779  0.99625  Biso   1.000  O
  O48      1.0000 0.96856  0.55788  0.04415  Biso   1.000  O
  C107     1.0000 0.90687  0.54620  0.02676  Biso   1.000  C
  C108     1.0000 0.84789  0.56703  0.04417  Biso   1.000  C
  C109     1.0000 0.86253  0.59709  0.07838  Biso   1.000  C
  H116     1.0000 0.91083  0.60747  0.08967  Biso   1.000  H
  C110     1.0000 0.89723  0.68937  0.14462  Biso   1.000  C
  H117     1.0000 0.94843  0.72327  0.13267  Biso   1.000  H
  C111     1.0000 0.86293  0.61887  0.15452  Biso   1.000  C
  H118     1.0000 0.87513  0.57477  0.15337  Biso   1.000  H
  H119     1.0000 0.90283  0.49627  0.92107  Biso   1.000  H
  H120     1.0000 0.83473  0.40537  0.91587  Biso   1.000  H
  N15      1.0000 0.91073  0.71447  0.17882  Biso   1.000  N
  O49      1.0000 0.14888  0.70509  0.32958  Biso   1.000  O
  O50      1.0000 0.10879  0.74402  0.37748  Biso   1.000  O
  C112     1.0000 0.12047  0.69401  0.36009  Biso   1.000  C
  C113     1.0000 0.09964  0.61420  0.37750  Biso   1.000  C
  C114     1.0000 0.06958  0.59878  0.41171  Biso   1.000  C
  H121     1.0000 0.05920  0.63670  0.42300  Biso   1.000  H
  C115     1.0000 0.97730  0.54120  0.47795  Biso   1.000  C
  H122     1.0000 0.94340  0.55850  0.46600  Biso   1.000  H
  C116     1.0000 0.04780  0.57740  0.48785  Biso   1.000  C
  H123     1.0000 0.09190  0.63370  0.48670  Biso   1.000  H
  H124     1.0000 0.17040  0.73990  0.25440  Biso   1.000  H
  H125     1.0000 0.26130  0.76270  0.24920  Biso   1.000  H
  N16      1.0000 0.95220  0.52960  0.51215  Biso   1.000  N
  O51      1.0000 0.81555  0.03842  0.66291  Biso   1.000  O
  O52      1.0000 0.77546  0.07735  0.71081  Biso   1.000  O
  C117     1.0000 0.78714  0.02734  0.69342  Biso   1.000  C
  C118     1.0000 0.76631  0.94753  0.71083  Biso   1.000  C
  C119     1.0000 0.73625  0.93211  0.74504  Biso   1.000  C
  H126     1.0000 0.72587  0.97003  0.75633  Biso   1.000  H
  C120     1.0000 0.64397  0.87453  0.81128  Biso   1.000  C
  H127     1.0000 0.61007  0.89183  0.79933  Biso   1.000  H
  C121     1.0000 0.71447  0.91073  0.82118  Biso   1.000  C
  H128     1.0000 0.75857  0.96703  0.82003  Biso   1.000  H
  H129     1.0000 0.83707  0.07323  0.58773  Biso   1.000  H
  H130     1.0000 0.92797  0.09603  0.58253  Biso   1.000  H
  N17      1.0000 0.61887  0.86293  0.84548  Biso   1.000  N
  O53      1.0000 0.48221  0.37176  0.99625  Biso   1.000  O
  O54      1.0000 0.44212  0.41069  0.04415  Biso   1.000  O
  C122     1.0000 0.45380  0.36068  0.02676  Biso   1.000  C
  C123     1.0000 0.43297  0.28087  0.04417  Biso   1.000  C
  C124     1.0000 0.40291  0.26545  0.07838  Biso   1.000  C
  H131     1.0000 0.39253  0.30337  0.08967  Biso   1.000  H
  C125     1.0000 0.31063  0.20787  0.14462  Biso   1.000  C
  H132     1.0000 0.27673  0.22517  0.13267  Biso   1.000  H
  C126     1.0000 0.38113  0.24407  0.15452  Biso   1.000  C
  H133     1.0000 0.42523  0.30037  0.15337  Biso   1.000  H
  H134     1.0000 0.50373  0.40657  0.92107  Biso   1.000  H
  H135     1.0000 0.59463  0.42937  0.91587  Biso   1.000  H
  N18      1.0000 0.28553  0.19627  0.17882  Biso   1.000  N
  O55      1.0000 0.44379  0.29491  0.67042  Biso   1.000  O
  O56      1.0000 0.36477  0.25598  0.62252  Biso   1.000  O
  C127     1.0000 0.42646  0.30599  0.63991  Biso   1.000  C
  C128     1.0000 0.48544  0.38580  0.62250  Biso   1.000  C
  C129     1.0000 0.47080  0.40122  0.58829  Biso   1.000  C
  H136     1.0000 0.42250  0.36330  0.57700  Biso   1.000  H
  C130     1.0000 0.43610  0.45880  0.52205  Biso   1.000  C
  H137     1.0000 0.38490  0.44150  0.53400  Biso   1.000  H
  H138     1.0000 0.45820  0.36630  0.51330  Biso   1.000  H
  H139     1.0000 0.43050  0.26010  0.74560  Biso   1.000  H
  H140     1.0000 0.49860  0.23730  0.75080  Biso   1.000  H
  O57      1.0000 0.11046  0.62824  0.00375  Biso   1.000  O
  O58      1.0000 0.03144  0.58931  0.95585  Biso   1.000  O
  C131     1.0000 0.09313  0.63932  0.97324  Biso   1.000  C
  C132     1.0000 0.15211  0.71913  0.95583  Biso   1.000  C
  C133     1.0000 0.13747  0.73455  0.92162  Biso   1.000  C
  H141     1.0000 0.08917  0.69663  0.91033  Biso   1.000  H
  C134     1.0000 0.10277  0.79213  0.85538  Biso   1.000  C
  H142     1.0000 0.05157  0.77483  0.86733  Biso   1.000  H
  H143     1.0000 0.12487  0.69963  0.84663  Biso   1.000  H
  H144     1.0000 0.09717  0.59343  0.07893  Biso   1.000  H
  H145     1.0000 0.16527  0.57063  0.08413  Biso   1.000  H
  O59      1.0000 0.77712  0.96158  0.33709  Biso   1.000  O
  O60      1.0000 0.69810  0.92265  0.28919  Biso   1.000  O
  C135     1.0000 0.75979  0.97266  0.30658  Biso   1.000  C
  C136     1.0000 0.81877  0.05247  0.28917  Biso   1.000  C
  C137     1.0000 0.80413  0.06789  0.25496  Biso   1.000  C
  H146     1.0000 0.75583  0.02997  0.24367  Biso   1.000  H
  C138     1.0000 0.76943  0.12547  0.18872  Biso   1.000  C
  H147     1.0000 0.71823  0.10817  0.20067  Biso   1.000  H
  H148     1.0000 0.79153  0.03297  0.17997  Biso   1.000  H
  H149     1.0000 0.76383  0.92677  0.41227  Biso   1.000  H
  H150     1.0000 0.83193  0.90397  0.41747  Biso   1.000  H
  O61      1.0000 0.85112  0.55621  0.67042  Biso   1.000  O
  O62      1.0000 0.89121  0.63523  0.62252  Biso   1.000  O
  C139     1.0000 0.87953  0.57354  0.63991  Biso   1.000  C
  C140     1.0000 0.90036  0.51456  0.62250  Biso   1.000  C
  C141     1.0000 0.93042  0.52920  0.58829  Biso   1.000  C
  H151     1.0000 0.94080  0.57750  0.57700  Biso   1.000  H
  C142     1.0000 0.02270  0.56390  0.52205  Biso   1.000  C
  H152     1.0000 0.05660  0.61510  0.53400  Biso   1.000  H
  H153     1.0000 0.90810  0.54180  0.51330  Biso   1.000  H
  H154     1.0000 0.82960  0.56950  0.74560  Biso   1.000  H
  H155     1.0000 0.73870  0.50140  0.75080  Biso   1.000  H
  O63      1.0000 0.51779  0.88954  0.00375  Biso   1.000  O
  O64      1.0000 0.55788  0.96856  0.95585  Biso   1.000  O
  C143     1.0000 0.54620  0.90687  0.97324  Biso   1.000  C
  C144     1.0000 0.56703  0.84789  0.95583  Biso   1.000  C
  C145     1.0000 0.59709  0.86253  0.92162  Biso   1.000  C
  H156     1.0000 0.60747  0.91083  0.91033  Biso   1.000  H
  C146     1.0000 0.68937  0.89723  0.85538  Biso   1.000  C
  H157     1.0000 0.72327  0.94843  0.86733  Biso   1.000  H
  H158     1.0000 0.57477  0.87513  0.84663  Biso   1.000  H
  H159     1.0000 0.49627  0.90283  0.07893  Biso   1.000  H
  H160     1.0000 0.40537  0.83473  0.08413  Biso   1.000  H
  O65      1.0000 0.18445  0.22288  0.33709  Biso   1.000  O
  O66      1.0000 0.22454  0.30190  0.28919  Biso   1.000  O
  C147     1.0000 0.21286  0.24021  0.30658  Biso   1.000  C
  C148     1.0000 0.23369  0.18123  0.28917  Biso   1.000  C
  C149     1.0000 0.26375  0.19587  0.25496  Biso   1.000  C
  H161     1.0000 0.27413  0.24417  0.24367  Biso   1.000  H
  C150     1.0000 0.35603  0.23057  0.18872  Biso   1.000  C
  H162     1.0000 0.38993  0.28177  0.20067  Biso   1.000  H
  H163     1.0000 0.24143  0.20847  0.17997  Biso   1.000  H
  H164     1.0000 0.16293  0.23617  0.41227  Biso   1.000  H
  H165     1.0000 0.07203  0.16807  0.41747  Biso   1.000  H
  O67      1.0000 0.70509  0.14888  0.67042  Biso   1.000  O
  O68      1.0000 0.74402  0.10879  0.62252  Biso   1.000  O
  C151     1.0000 0.69401  0.12047  0.63991  Biso   1.000  C
  C152     1.0000 0.61420  0.09964  0.62250  Biso   1.000  C
  C153     1.0000 0.59878  0.06958  0.58829  Biso   1.000  C
  H166     1.0000 0.63670  0.05920  0.57700  Biso   1.000  H
  C154     1.0000 0.54120  0.97730  0.52205  Biso   1.000  C
  H167     1.0000 0.55850  0.94340  0.53400  Biso   1.000  H
  H168     1.0000 0.63370  0.09190  0.51330  Biso   1.000  H
  H169     1.0000 0.73990  0.17040  0.74560  Biso   1.000  H
  H170     1.0000 0.76270  0.26130  0.75080  Biso   1.000  H
  O69      1.0000 0.37176  0.48221  0.00375  Biso   1.000  O
  O70      1.0000 0.41069  0.44212  0.95585  Biso   1.000  O
  C155     1.0000 0.36068  0.45380  0.97324  Biso   1.000  C
  C156     1.0000 0.28087  0.43297  0.95583  Biso   1.000  C
  C157     1.0000 0.26545  0.40291  0.92162  Biso   1.000  C
  H171     1.0000 0.30337  0.39253  0.91033  Biso   1.000  H
  C158     1.0000 0.20787  0.31063  0.85538  Biso   1.000  C
  H172     1.0000 0.22517  0.27673  0.86733  Biso   1.000  H
  H173     1.0000 0.30037  0.42523  0.84663  Biso   1.000  H
  H174     1.0000 0.40657  0.50373  0.07893  Biso   1.000  H
  H175     1.0000 0.42937  0.59463  0.08413  Biso   1.000  H
  O71      1.0000 0.03842  0.81555  0.33709  Biso   1.000  O
  O72      1.0000 0.07735  0.77546  0.28919  Biso   1.000  O
  C159     1.0000 0.02734  0.78714  0.30658  Biso   1.000  C
  C160     1.0000 0.94753  0.76631  0.28917  Biso   1.000  C
  C161     1.0000 0.93211  0.73625  0.25496  Biso   1.000  C
  H176     1.0000 0.97003  0.72587  0.24367  Biso   1.000  H
  C162     1.0000 0.87453  0.64397  0.18872  Biso   1.000  C
  H177     1.0000 0.89183  0.61007  0.20067  Biso   1.000  H
  H178     1.0000 0.96703  0.75857  0.17997  Biso   1.000  H
  H179     1.0000 0.07323  0.83707  0.41227  Biso   1.000  H
  H180     1.0000 0.09603  0.92797  0.41747  Biso   1.000  H
  Cu1      1.0000 0.80990  0.61980  0.69524  Biso   1.000  Cu
  O73      1.0000 0.77650  0.55300  0.74367  Biso   1.000  O
  Cu2      1.0000 0.47657  0.95313  0.02857  Biso   1.000  Cu
  O74      1.0000 0.44317  0.88633  0.07700  Biso   1.000  O
  Cu3      1.0000 0.14323  0.28647  0.36191  Biso   1.000  Cu
  O75      1.0000 0.10983  0.21967  0.41034  Biso   1.000  O
  Cu4      1.0000 0.38020  0.19010  0.69524  Biso   1.000  Cu
  O76      1.0000 0.44700  0.22350  0.74367  Biso   1.000  O
  Cu5      1.0000 0.04687  0.52343  0.02857  Biso   1.000  Cu
  O77      1.0000 0.11367  0.55683  0.07700  Biso   1.000  O
  Cu6      1.0000 0.71353  0.85677  0.36191  Biso   1.000  Cu
  O78      1.0000 0.78033  0.89017  0.41034  Biso   1.000  O
  Cu7      1.0000 0.80990  0.19010  0.69524  Biso   1.000  Cu
  O79      1.0000 0.77650  0.22350  0.74367  Biso   1.000  O
  Cu8      1.0000 0.47657  0.52343  0.02857  Biso   1.000  Cu
  O80      1.0000 0.44317  0.55683  0.07700  Biso   1.000  O
  Cu9      1.0000 0.14323  0.85677  0.36191  Biso   1.000  Cu
  O81      1.0000 0.10983  0.89017  0.41034  Biso   1.000  O
  Cu10     1.0000 0.61980  0.80990  0.30476  Biso   1.000  Cu
  O82      1.0000 0.55300  0.77650  0.25633  Biso   1.000  O
  Cu11     1.0000 0.28647  0.14323  0.63809  Biso   1.000  Cu
  O83      1.0000 0.21967  0.10983  0.58966  Biso   1.000  O
  Cu12     1.0000 0.95313  0.47657  0.97143  Biso   1.000  Cu
  O84      1.0000 0.88633  0.44317  0.92300  Biso   1.000  O
  Cu13     1.0000 0.19010  0.38020  0.30476  Biso   1.000  Cu
  O85      1.0000 0.22350  0.44700  0.25633  Biso   1.000  O
  Cu14     1.0000 0.85677  0.71353  0.63809  Biso   1.000  Cu
  O86      1.0000 0.89017  0.78033  0.58966  Biso   1.000  O
  Cu15     1.0000 0.52343  0.04687  0.97143  Biso   1.000  Cu
  O87      1.0000 0.55683  0.11367  0.92300  Biso   1.000  O
  Cu16     1.0000 0.19010  0.80990  0.30476  Biso   1.000  Cu
  O88      1.0000 0.22350  0.77650  0.25633  Biso   1.000  O
  Cu17     1.0000 0.85677  0.14323  0.63809  Biso   1.000  Cu
  O89      1.0000 0.89017  0.10983  0.58966  Biso   1.000  O
  Cu18     1.0000 0.52343  0.47657  0.97143  Biso   1.000  Cu
  O90      1.0000 0.55683  0.44317  0.92300  Biso   1.000  O
  C163     1.0000 0.55723  0.44277  0.63948  Biso   1.000  C
  H181     1.0000 0.56720  0.43280  0.66230  Biso   1.000  H
  C164     1.0000 0.52753  0.47247  0.57097  Biso   1.000  C
  C165     1.0000 0.51311  0.48689  0.53407  Biso   1.000  C
  C166     1.0000 0.22390  0.77610  0.97281  Biso   1.000  C
  H182     1.0000 0.23387  0.76613  0.99563  Biso   1.000  H
  C167     1.0000 0.19420  0.80580  0.90430  Biso   1.000  C
  C168     1.0000 0.17978  0.82022  0.86740  Biso   1.000  C
  C169     1.0000 0.89056  0.10944  0.30615  Biso   1.000  C
  H183     1.0000 0.90053  0.09947  0.32897  Biso   1.000  H
  C170     1.0000 0.86086  0.13914  0.23764  Biso   1.000  C
  C171     1.0000 0.84644  0.15356  0.20074  Biso   1.000  C
  C172     1.0000 0.55723  0.11446  0.63948  Biso   1.000  C
  H184     1.0000 0.56720  0.13440  0.66230  Biso   1.000  H
  C173     1.0000 0.52753  0.05506  0.57097  Biso   1.000  C
  C174     1.0000 0.51311  0.02622  0.53407  Biso   1.000  C
  C175     1.0000 0.22390  0.44779  0.97281  Biso   1.000  C
  H185     1.0000 0.23387  0.46773  0.99563  Biso   1.000  H
  C176     1.0000 0.19420  0.38839  0.90430  Biso   1.000  C
  C177     1.0000 0.17978  0.35955  0.86740  Biso   1.000  C
  C178     1.0000 0.89056  0.78113  0.30615  Biso   1.000  C
  H186     1.0000 0.90053  0.80107  0.32897  Biso   1.000  H
  C179     1.0000 0.86086  0.72173  0.23764  Biso   1.000  C
  C180     1.0000 0.84644  0.69289  0.20074  Biso   1.000  C
  C181     1.0000 0.88554  0.44277  0.63948  Biso   1.000  C
  H187     1.0000 0.86560  0.43280  0.66230  Biso   1.000  H
  C182     1.0000 0.94494  0.47247  0.57097  Biso   1.000  C
  C183     1.0000 0.97378  0.48689  0.53407  Biso   1.000  C
  C184     1.0000 0.55221  0.77610  0.97281  Biso   1.000  C
  H188     1.0000 0.53227  0.76613  0.99563  Biso   1.000  H
  C185     1.0000 0.61161  0.80580  0.90430  Biso   1.000  C
  C186     1.0000 0.64045  0.82022  0.86740  Biso   1.000  C
  C187     1.0000 0.21887  0.10944  0.30615  Biso   1.000  C
  H189     1.0000 0.19893  0.09947  0.32897  Biso   1.000  H
  C188     1.0000 0.27827  0.13914  0.23764  Biso   1.000  C
  C189     1.0000 0.30711  0.15356  0.20074  Biso   1.000  C
  C190     1.0000 0.44277  0.55723  0.36052  Biso   1.000  C
  H190     1.0000 0.43280  0.56720  0.33770  Biso   1.000  H
  C191     1.0000 0.47247  0.52753  0.42903  Biso   1.000  C
  C192     1.0000 0.48689  0.51311  0.46593  Biso   1.000  C
  C193     1.0000 0.10944  0.89056  0.69385  Biso   1.000  C
  H191     1.0000 0.09947  0.90053  0.67103  Biso   1.000  H
  C194     1.0000 0.13914  0.86086  0.76236  Biso   1.000  C
  C195     1.0000 0.15356  0.84644  0.79926  Biso   1.000  C
  C196     1.0000 0.77610  0.22390  0.02719  Biso   1.000  C
  H192     1.0000 0.76613  0.23387  0.00437  Biso   1.000  H
  C197     1.0000 0.80580  0.19420  0.09570  Biso   1.000  C
  C198     1.0000 0.82022  0.17978  0.13260  Biso   1.000  C
  C199     1.0000 0.11446  0.55723  0.36052  Biso   1.000  C
  H193     1.0000 0.13440  0.56720  0.33770  Biso   1.000  H
  C200     1.0000 0.05506  0.52753  0.42903  Biso   1.000  C
  C201     1.0000 0.02622  0.51311  0.46593  Biso   1.000  C
  C202     1.0000 0.78113  0.89056  0.69385  Biso   1.000  C
  H194     1.0000 0.80107  0.90053  0.67103  Biso   1.000  H
  C203     1.0000 0.72173  0.86086  0.76236  Biso   1.000  C
  C204     1.0000 0.69289  0.84644  0.79926  Biso   1.000  C
  C205     1.0000 0.44779  0.22390  0.02719  Biso   1.000  C
  H195     1.0000 0.46773  0.23387  0.00437  Biso   1.000  H
  C206     1.0000 0.38839  0.19420  0.09570  Biso   1.000  C
  C207     1.0000 0.35955  0.17978  0.13260  Biso   1.000  C
  C208     1.0000 0.44277  0.88554  0.36052  Biso   1.000  C
  H196     1.0000 0.43280  0.86560  0.33770  Biso   1.000  H
  C209     1.0000 0.47247  0.94494  0.42903  Biso   1.000  C
  C210     1.0000 0.48689  0.97378  0.46593  Biso   1.000  C
  C211     1.0000 0.10944  0.21887  0.69385  Biso   1.000  C
  H197     1.0000 0.09947  0.19893  0.67103  Biso   1.000  H
  C212     1.0000 0.13914  0.27827  0.76236  Biso   1.000  C
  C213     1.0000 0.15356  0.30711  0.79926  Biso   1.000  C
  C214     1.0000 0.77610  0.55221  0.02719  Biso   1.000  C
  H198     1.0000 0.76613  0.53227  0.00437  Biso   1.000  H
  C215     1.0000 0.80580  0.61161  0.09570  Biso   1.000  C
  C216     1.0000 0.82022  0.64045  0.13260  Biso   1.000  C
