data_image0
_cell_length_a       7.452
_cell_length_b       14.586
_cell_length_c       16.472
_cell_angle_alpha    90
_cell_angle_beta     90
_cell_angle_gamma    95.46

_symmetry_space_group_name_H-M    P 1
_symmetry_int_tables_number       1

loop_
  _symmetry_equiv_pos_as_xyz
  'x, y, z'

loop_
  _atom_site_label
  _atom_site_occupancy
  _atom_site_fract_x
  _atom_site_fract_y
  _atom_site_fract_z
  _atom_site_thermal_displace_type
  _atom_site_B_iso_or_equiv
  _atom_site_type_symbol
  Co1      1.0000 0.20900  0.67611  0.48647  Biso   1.000  Co
  Co2      1.0000 0.18871  0.47251  0.37216  Biso   1.000  Co
  Co3      1.0000 0.29100  0.82389  0.98647  Biso   1.000  Co
  Co4      1.0000 0.31129  0.02749  0.87216  Biso   1.000  Co
  Co5      1.0000 0.79100  0.32389  0.51353  Biso   1.000  Co
  Co6      1.0000 0.81129  0.52749  0.62784  Biso   1.000  Co
  Co7      1.0000 0.70900  0.17611  0.01353  Biso   1.000  Co
  Co8      1.0000 0.68871  0.97251  0.12784  Biso   1.000  Co
  Co9      1.0000 0.50000  0.50000  0.50000  Biso   1.000  Co
  Co10     1.0000 0.00000  0.00000  0.00000  Biso   1.000  Co
  H1       1.0000 0.83700  0.49020  0.47590  Biso   1.000  H
  H2       1.0000 0.08810  0.44310  0.19750  Biso   1.000  H
  H3       1.0000 0.24420  0.39570  0.23180  Biso   1.000  H
  H4       1.0000 0.48610  0.78060  0.43340  Biso   1.000  H
  H5       1.0000 0.46680  0.73130  0.39020  Biso   1.000  H
  H6       1.0000 0.43210  0.66960  0.20510  Biso   1.000  H
  H7       1.0000 0.05050  0.72590  0.22500  Biso   1.000  H
  H8       1.0000 0.66300  0.00980  0.97590  Biso   1.000  H
  H9       1.0000 0.41190  0.05690  0.69750  Biso   1.000  H
  H10      1.0000 0.25580  0.10430  0.73180  Biso   1.000  H
  H11      1.0000 0.01390  0.71940  0.93340  Biso   1.000  H
  H12      1.0000 0.03320  0.76870  0.89020  Biso   1.000  H
  H13      1.0000 0.06790  0.83040  0.70510  Biso   1.000  H
  H14      1.0000 0.44950  0.77410  0.72500  Biso   1.000  H
  H15      1.0000 0.16300  0.50980  0.52410  Biso   1.000  H
  H16      1.0000 0.91190  0.55690  0.80250  Biso   1.000  H
  H17      1.0000 0.75580  0.60430  0.76820  Biso   1.000  H
  H18      1.0000 0.51390  0.21940  0.56660  Biso   1.000  H
  H19      1.0000 0.53320  0.26870  0.60980  Biso   1.000  H
  H20      1.0000 0.56790  0.33040  0.79490  Biso   1.000  H
  H21      1.0000 0.94950  0.27410  0.77500  Biso   1.000  H
  H22      1.0000 0.33700  0.99020  0.02410  Biso   1.000  H
  H23      1.0000 0.58810  0.94310  0.30250  Biso   1.000  H
  H24      1.0000 0.74420  0.89570  0.26820  Biso   1.000  H
  H25      1.0000 0.98610  0.28060  0.06660  Biso   1.000  H
  H26      1.0000 0.96680  0.23130  0.10980  Biso   1.000  H
  H27      1.0000 0.93210  0.16960  0.29490  Biso   1.000  H
  H28      1.0000 0.55050  0.22590  0.27500  Biso   1.000  H
  C1       1.0000 0.83270  0.66320  0.28050  Biso   1.000  C
  C2       1.0000 0.64670  0.64580  0.27560  Biso   1.000  C
  C3       1.0000 0.55610  0.68330  0.21010  Biso   1.000  C
  C4       1.0000 0.64740  0.74020  0.15270  Biso   1.000  C
  C5       1.0000 0.83550  0.75600  0.15870  Biso   1.000  C
  C6       1.0000 0.92550  0.71630  0.22210  Biso   1.000  C
  C7       1.0000 0.94370  0.62580  0.34660  Biso   1.000  C
  C8       1.0000 0.53210  0.59160  0.33720  Biso   1.000  C
  C9       1.0000 0.53050  0.77850  0.08870  Biso   1.000  C
  C10      1.0000 0.95140  0.81680  0.10190  Biso   1.000  C
  C11      1.0000 0.66730  0.83680  0.78050  Biso   1.000  C
  C12      1.0000 0.85330  0.85420  0.77560  Biso   1.000  C
  C13      1.0000 0.94390  0.81670  0.71010  Biso   1.000  C
  C14      1.0000 0.85260  0.75980  0.65270  Biso   1.000  C
  C15      1.0000 0.66450  0.74400  0.65870  Biso   1.000  C
  C16      1.0000 0.57450  0.78370  0.72210  Biso   1.000  C
  C17      1.0000 0.55630  0.87420  0.84660  Biso   1.000  C
  C18      1.0000 0.96790  0.90840  0.83720  Biso   1.000  C
  C19      1.0000 0.96950  0.72150  0.58870  Biso   1.000  C
  C20      1.0000 0.54860  0.68320  0.60190  Biso   1.000  C
  C21      1.0000 0.16730  0.33680  0.71950  Biso   1.000  C
  C22      1.0000 0.35330  0.35420  0.72440  Biso   1.000  C
  C23      1.0000 0.44390  0.31670  0.78990  Biso   1.000  C
  C24      1.0000 0.35260  0.25980  0.84730  Biso   1.000  C
  C25      1.0000 0.16450  0.24400  0.84130  Biso   1.000  C
  C26      1.0000 0.07450  0.28370  0.77790  Biso   1.000  C
  C27      1.0000 0.05630  0.37420  0.65340  Biso   1.000  C
  C28      1.0000 0.46790  0.40840  0.66280  Biso   1.000  C
  C29      1.0000 0.46950  0.22150  0.91130  Biso   1.000  C
  C30      1.0000 0.04860  0.18320  0.89810  Biso   1.000  C
  C31      1.0000 0.33270  0.16320  0.21950  Biso   1.000  C
  C32      1.0000 0.14670  0.14580  0.22440  Biso   1.000  C
  C33      1.0000 0.05610  0.18330  0.28990  Biso   1.000  C
  C34      1.0000 0.14740  0.24020  0.34730  Biso   1.000  C
  C35      1.0000 0.33550  0.25600  0.34130  Biso   1.000  C
  C36      1.0000 0.42550  0.21630  0.27790  Biso   1.000  C
  C37      1.0000 0.44370  0.12580  0.15340  Biso   1.000  C
  C38      1.0000 0.03210  0.09160  0.16280  Biso   1.000  C
  C39      1.0000 0.03050  0.27850  0.41130  Biso   1.000  C
  C40      1.0000 0.45140  0.31680  0.39810  Biso   1.000  C
  O1       1.0000 0.96220  0.53940  0.34350  Biso   1.000  O
  O2       1.0000 0.01420  0.67980  0.39670  Biso   1.000  O
  O3       1.0000 0.37370  0.56200  0.31760  Biso   1.000  O
  O4       1.0000 0.60290  0.58210  0.40560  Biso   1.000  O
  O5       1.0000 0.52030  0.86320  0.08270  Biso   1.000  O
  O6       1.0000 0.43290  0.72320  0.04690  Biso   1.000  O
  O7       1.0000 0.09390  0.78850  0.07580  Biso   1.000  O
  O8       1.0000 0.89970  0.89640  0.08430  Biso   1.000  O
  O9       1.0000 0.75800  0.45930  0.51720  Biso   1.000  O
  O10      1.0000 0.15600  0.42180  0.24660  Biso   1.000  O
  O11      1.0000 0.37030  0.76190  0.41170  Biso   1.000  O
  O12      1.0000 0.53780  0.96060  0.84350  Biso   1.000  O
  O13      1.0000 0.48580  0.82020  0.89670  Biso   1.000  O
  O14      1.0000 0.12630  0.93800  0.81760  Biso   1.000  O
  O15      1.0000 0.89710  0.91790  0.90560  Biso   1.000  O
  O16      1.0000 0.97970  0.63680  0.58270  Biso   1.000  O
  O17      1.0000 0.06710  0.77680  0.54690  Biso   1.000  O
  O18      1.0000 0.40610  0.71150  0.57580  Biso   1.000  O
  O19      1.0000 0.60030  0.60360  0.58430  Biso   1.000  O
  O20      1.0000 0.74200  0.04070  0.01720  Biso   1.000  O
  O21      1.0000 0.34400  0.07820  0.74660  Biso   1.000  O
  O22      1.0000 0.12970  0.73810  0.91170  Biso   1.000  O
  O23      1.0000 0.03780  0.46060  0.65650  Biso   1.000  O
  O24      1.0000 0.98580  0.32020  0.60330  Biso   1.000  O
  O25      1.0000 0.62630  0.43800  0.68240  Biso   1.000  O
  O26      1.0000 0.39710  0.41790  0.59440  Biso   1.000  O
  O27      1.0000 0.47970  0.13680  0.91730  Biso   1.000  O
  O28      1.0000 0.56710  0.27680  0.95310  Biso   1.000  O
  O29      1.0000 0.90610  0.21150  0.92420  Biso   1.000  O
  O30      1.0000 0.10030  0.10360  0.91570  Biso   1.000  O
  O31      1.0000 0.24200  0.54070  0.48280  Biso   1.000  O
  O32      1.0000 0.84400  0.57820  0.75340  Biso   1.000  O
  O33      1.0000 0.62970  0.23810  0.58830  Biso   1.000  O
  O34      1.0000 0.46220  0.03940  0.15650  Biso   1.000  O
  O35      1.0000 0.51420  0.17980  0.10330  Biso   1.000  O
  O36      1.0000 0.87370  0.06200  0.18240  Biso   1.000  O
  O37      1.0000 0.10290  0.08210  0.09440  Biso   1.000  O
  O38      1.0000 0.02030  0.36320  0.41730  Biso   1.000  O
  O39      1.0000 0.93290  0.22320  0.45310  Biso   1.000  O
  O40      1.0000 0.59390  0.28850  0.42420  Biso   1.000  O
  O41      1.0000 0.39970  0.39640  0.41570  Biso   1.000  O
  O42      1.0000 0.25800  0.95930  0.98280  Biso   1.000  O
  O43      1.0000 0.65600  0.92180  0.25340  Biso   1.000  O
  O44      1.0000 0.87030  0.26190  0.08830  Biso   1.000  O
