data_image0
_cell_length_a       14.1675
_cell_length_b       21.2583
_cell_length_c       13.6566
_cell_angle_alpha    90
_cell_angle_beta     113.85
_cell_angle_gamma    90

_symmetry_space_group_name_H-M    "P 1"
_symmetry_int_tables_number       1

loop_
  _symmetry_equiv_pos_as_xyz
  'x, y, z'

loop_
  _atom_site_label
  _atom_site_occupancy
  _atom_site_fract_x
  _atom_site_fract_y
  _atom_site_fract_z
  _atom_site_thermal_displace_type
  _atom_site_B_iso_or_equiv
  _atom_site_type_symbol
  Mo1      1.0000 0.64585  0.58680  0.35571  Biso   1.000  Mo
  Mo2      1.0000 0.61434  0.42359  0.31814  Biso   1.000  Mo
  Mo3      1.0000 0.71407  0.41625  0.73752  Biso   1.000  Mo
  Mo4      1.0000 0.64496  0.35127  0.48145  Biso   1.000  Mo
  Mo5      1.0000 0.73447  0.53734  0.76482  Biso   1.000  Mo
  Mo6      1.0000 0.69273  0.63536  0.54373  Biso   1.000  Mo
  Sr1      1.0000 0.86874  0.35863  0.32050  Biso   1.000  Sr
  Sr2      1.0000 0.01470  0.48206  0.78651  Biso   1.000  Sr
  P1       1.0000 0.77776  0.50387  0.24847  Biso   1.000  P
  P2       1.0000 0.78827  0.48573  0.55486  Biso   1.000  P
  P3       1.0000 0.91027  0.63781  0.75881  Biso   1.000  P
  P4       1.0000 0.81058  0.28189  0.69853  Biso   1.000  P
  O1       1.0000 0.68025  0.39668  0.83750  Biso   1.000  O
  O2       1.0000 0.52498  0.38247  0.21968  Biso   1.000  O
  O3       1.0000 0.63464  0.70531  0.50970  Biso   1.000  O
  O4       1.0000 0.57724  0.64598  0.27769  Biso   1.000  O
  O5       1.0000 0.70817  0.54552  0.87346  Biso   1.000  O
  O6       1.0000 0.58033  0.57714  0.45854  Biso   1.000  O
  O7       1.0000 0.54945  0.51280  0.26931  Biso   1.000  O
  O8       1.0000 0.74899  0.42568  0.59037  Biso   1.000  O
  O9       1.0000 0.61008  0.35906  0.61755  Biso   1.000  O
  O10      1.0000 0.55517  0.42571  0.42642  Biso   1.000  O
  O11      1.0000 0.61802  0.48613  0.66820  Biso   1.000  O
  O12      1.0000 0.83612  0.46958  0.80159  Biso   1.000  O
  O13      1.0000 0.90202  0.47995  0.58071  Biso   1.000  O
  O14      1.0000 0.72246  0.49550  0.43457  Biso   1.000  O
  O15      1.0000 0.70683  0.44646  0.24071  Biso   1.000  O
  O16      1.0000 0.73096  0.56433  0.27182  Biso   1.000  O
  O17      1.0000 0.78872  0.51145  0.14273  Biso   1.000  O
  O18      1.0000 0.76840  0.54211  0.61627  Biso   1.000  O
  O19      1.0000 0.72424  0.36453  0.39602  Biso   1.000  O
  O20      1.0000 0.77114  0.62554  0.45719  Biso   1.000  O
  O21      1.0000 0.98704  0.60172  0.73046  Biso   1.000  O
  O22      1.0000 0.81693  0.34318  0.76013  Biso   1.000  O
  O23      1.0000 0.76612  0.29524  0.57726  Biso   1.000  O
  O24      1.0000 0.56231  0.29263  0.42173  Biso   1.000  O
  O25      1.0000 0.85981  0.59724  0.81721  Biso   1.000  O
  O26      1.0000 0.82689  0.66995  0.66057  Biso   1.000  O
  O27      1.0000 0.88438  0.48806  0.33566  Biso   1.000  O
  O28      1.0000 0.73986  0.23329  0.72330  Biso   1.000  O
  H1       1.0000 0.68580  0.25040  0.71680  Biso   1.000  H
  O29      1.0000 0.65290  0.61476  0.67489  Biso   1.000  O
  O30      1.0000 0.96589  0.69211  0.84011  Biso   1.000  O
  H2       1.0000 0.00420  0.71140  0.81900  Biso   1.000  H
  O31      1.0000 0.91420  0.25036  0.73555  Biso   1.000  O
  O32      1.0000 0.01340  0.38780  0.91640  Biso   1.000  O
  O33      1.0000 0.07600  0.54406  0.96500  Biso   1.000  O
  O34      1.0000 0.80420  0.36888  0.10670  Biso   1.000  O
  O35      1.0000 0.90500  0.27477  0.46690  Biso   1.000  O
  H3       1.0000 0.86100  0.27390  0.49460  Biso   1.000  H
  H4       1.0000 0.94760  0.24500  0.49450  Biso   1.000  H
  O36      1.0000 0.03870  0.36801  0.70950  Biso   1.000  O
  H5       1.0000 0.06830  0.36530  0.66650  Biso   1.000  H
  H6       1.0000 0.01670  0.33500  0.72860  Biso   1.000  H
  O37      1.0000 0.97261  0.60324  0.49692  Biso   1.000  O
  H7       1.0000 0.92290  0.62620  0.49510  Biso   1.000  H
  H8       1.0000 0.01540  0.62670  0.48500  Biso   1.000  H
  O38      1.0000 0.93480  0.59910  0.05070  Biso   1.000  O
  Mo7      1.0000 0.35415  0.08680  0.14429  Biso   1.000  Mo
  Mo8      1.0000 0.38566  0.92359  0.18186  Biso   1.000  Mo
  Mo9      1.0000 0.28593  0.91625  0.76248  Biso   1.000  Mo
  Mo10     1.0000 0.35504  0.85127  0.01855  Biso   1.000  Mo
  Mo11     1.0000 0.26553  0.03734  0.73518  Biso   1.000  Mo
  Mo12     1.0000 0.30727  0.13536  0.95627  Biso   1.000  Mo
  Sr3      1.0000 0.13126  0.85863  0.17950  Biso   1.000  Sr
  Sr4      1.0000 0.98530  0.98206  0.71349  Biso   1.000  Sr
  P5       1.0000 0.22224  0.00387  0.25153  Biso   1.000  P
  P6       1.0000 0.21173  0.98573  0.94514  Biso   1.000  P
  P7       1.0000 0.08973  0.13781  0.74119  Biso   1.000  P
  P8       1.0000 0.18942  0.78189  0.80147  Biso   1.000  P
  O39      1.0000 0.31975  0.89668  0.66250  Biso   1.000  O
  O40      1.0000 0.47502  0.88247  0.28032  Biso   1.000  O
  O41      1.0000 0.36536  0.20531  0.99030  Biso   1.000  O
  O42      1.0000 0.42276  0.14598  0.22231  Biso   1.000  O
  O43      1.0000 0.29183  0.04552  0.62654  Biso   1.000  O
  O44      1.0000 0.41967  0.07714  0.04146  Biso   1.000  O
  O45      1.0000 0.45055  0.01280  0.23069  Biso   1.000  O
  O46      1.0000 0.25101  0.92568  0.90963  Biso   1.000  O
  O47      1.0000 0.38992  0.85906  0.88245  Biso   1.000  O
  O48      1.0000 0.44483  0.92571  0.07358  Biso   1.000  O
  O49      1.0000 0.38198  0.98613  0.83180  Biso   1.000  O
  O50      1.0000 0.16388  0.96958  0.69841  Biso   1.000  O
  O51      1.0000 0.09798  0.97995  0.91929  Biso   1.000  O
  O52      1.0000 0.27754  0.99550  0.06543  Biso   1.000  O
  O53      1.0000 0.29317  0.94646  0.25929  Biso   1.000  O
  O54      1.0000 0.26904  0.06433  0.22818  Biso   1.000  O
  O55      1.0000 0.21128  0.01145  0.35727  Biso   1.000  O
  O56      1.0000 0.23160  0.04211  0.88373  Biso   1.000  O
  O57      1.0000 0.27576  0.86453  0.10398  Biso   1.000  O
  O58      1.0000 0.22886  0.12554  0.04281  Biso   1.000  O
  O59      1.0000 0.01296  0.10172  0.76954  Biso   1.000  O
  O60      1.0000 0.18307  0.84318  0.73987  Biso   1.000  O
  O61      1.0000 0.23388  0.79524  0.92274  Biso   1.000  O
  O62      1.0000 0.43769  0.79263  0.07827  Biso   1.000  O
  O63      1.0000 0.14019  0.09724  0.68279  Biso   1.000  O
  O64      1.0000 0.17311  0.16995  0.83943  Biso   1.000  O
  O65      1.0000 0.11562  0.98806  0.16434  Biso   1.000  O
  O66      1.0000 0.26014  0.73329  0.77670  Biso   1.000  O
  H9       1.0000 0.31420  0.75040  0.78320  Biso   1.000  H
  O67      1.0000 0.34710  0.11476  0.82511  Biso   1.000  O
  O68      1.0000 0.03411  0.19211  0.65989  Biso   1.000  O
  H10      1.0000 0.99580  0.21140  0.68100  Biso   1.000  H
  O69      1.0000 0.08580  0.75036  0.76445  Biso   1.000  O
  O70      1.0000 0.98660  0.88780  0.58360  Biso   1.000  O
  O71      1.0000 0.92400  0.04406  0.53500  Biso   1.000  O
  O72      1.0000 0.19580  0.86888  0.39330  Biso   1.000  O
  O73      1.0000 0.09500  0.77477  0.03310  Biso   1.000  O
  H11      1.0000 0.13900  0.77390  0.00540  Biso   1.000  H
  H12      1.0000 0.05240  0.74500  0.00550  Biso   1.000  H
  O74      1.0000 0.96130  0.86801  0.79050  Biso   1.000  O
  H13      1.0000 0.93170  0.86530  0.83350  Biso   1.000  H
  H14      1.0000 0.98330  0.83500  0.77140  Biso   1.000  H
  O75      1.0000 0.02739  0.10324  0.00308  Biso   1.000  O
  H15      1.0000 0.07710  0.12620  0.00490  Biso   1.000  H
  H16      1.0000 0.98460  0.12670  0.01500  Biso   1.000  H
  O76      1.0000 0.06520  0.09910  0.44930  Biso   1.000  O
  Mo13     1.0000 0.35415  0.41320  0.64429  Biso   1.000  Mo
  Mo14     1.0000 0.38566  0.57641  0.68186  Biso   1.000  Mo
  Mo15     1.0000 0.28593  0.58375  0.26248  Biso   1.000  Mo
  Mo16     1.0000 0.35504  0.64873  0.51855  Biso   1.000  Mo
  Mo17     1.0000 0.26553  0.46266  0.23518  Biso   1.000  Mo
  Mo18     1.0000 0.30727  0.36464  0.45627  Biso   1.000  Mo
  Sr5      1.0000 0.13126  0.64137  0.67950  Biso   1.000  Sr
  Sr6      1.0000 0.98530  0.51794  0.21349  Biso   1.000  Sr
  P9       1.0000 0.22224  0.49613  0.75153  Biso   1.000  P
  P10      1.0000 0.21173  0.51427  0.44514  Biso   1.000  P
  P11      1.0000 0.08973  0.36219  0.24119  Biso   1.000  P
  P12      1.0000 0.18942  0.71811  0.30147  Biso   1.000  P
  O77      1.0000 0.31975  0.60332  0.16250  Biso   1.000  O
  O78      1.0000 0.47502  0.61753  0.78032  Biso   1.000  O
  O79      1.0000 0.36536  0.29469  0.49030  Biso   1.000  O
  O80      1.0000 0.42276  0.35402  0.72231  Biso   1.000  O
  O81      1.0000 0.29183  0.45448  0.12654  Biso   1.000  O
  O82      1.0000 0.41967  0.42286  0.54146  Biso   1.000  O
  O83      1.0000 0.45055  0.48720  0.73069  Biso   1.000  O
  O84      1.0000 0.25101  0.57432  0.40963  Biso   1.000  O
  O85      1.0000 0.38992  0.64094  0.38245  Biso   1.000  O
  O86      1.0000 0.44483  0.57429  0.57358  Biso   1.000  O
  O87      1.0000 0.38198  0.51387  0.33180  Biso   1.000  O
  O88      1.0000 0.16388  0.53042  0.19841  Biso   1.000  O
  O89      1.0000 0.09798  0.52005  0.41929  Biso   1.000  O
  O90      1.0000 0.27754  0.50450  0.56543  Biso   1.000  O
  O91      1.0000 0.29317  0.55354  0.75929  Biso   1.000  O
  O92      1.0000 0.26904  0.43567  0.72818  Biso   1.000  O
  O93      1.0000 0.21128  0.48855  0.85727  Biso   1.000  O
  O94      1.0000 0.23160  0.45789  0.38373  Biso   1.000  O
  O95      1.0000 0.27576  0.63547  0.60398  Biso   1.000  O
  O96      1.0000 0.22886  0.37446  0.54281  Biso   1.000  O
  O97      1.0000 0.01296  0.39828  0.26954  Biso   1.000  O
  O98      1.0000 0.18307  0.65682  0.23987  Biso   1.000  O
  O99      1.0000 0.23388  0.70476  0.42274  Biso   1.000  O
  O100     1.0000 0.43769  0.70737  0.57827  Biso   1.000  O
  O101     1.0000 0.14019  0.40276  0.18279  Biso   1.000  O
  O102     1.0000 0.17311  0.33005  0.33943  Biso   1.000  O
  O103     1.0000 0.11562  0.51194  0.66434  Biso   1.000  O
  O104     1.0000 0.26014  0.76671  0.27670  Biso   1.000  O
  H17      1.0000 0.31420  0.74960  0.28320  Biso   1.000  H
  O105     1.0000 0.34710  0.38524  0.32511  Biso   1.000  O
  O106     1.0000 0.03411  0.30789  0.15989  Biso   1.000  O
  H18      1.0000 0.99580  0.28860  0.18100  Biso   1.000  H
  O107     1.0000 0.08580  0.74964  0.26445  Biso   1.000  O
  O108     1.0000 0.98660  0.61220  0.08360  Biso   1.000  O
  O109     1.0000 0.92400  0.45594  0.03500  Biso   1.000  O
  O110     1.0000 0.19580  0.63112  0.89330  Biso   1.000  O
  O111     1.0000 0.09500  0.72523  0.53310  Biso   1.000  O
  H19      1.0000 0.13900  0.72610  0.50540  Biso   1.000  H
  H20      1.0000 0.05240  0.75500  0.50550  Biso   1.000  H
  O112     1.0000 0.96130  0.63199  0.29050  Biso   1.000  O
  H21      1.0000 0.93170  0.63470  0.33350  Biso   1.000  H
  H22      1.0000 0.98330  0.66500  0.27140  Biso   1.000  H
  O113     1.0000 0.02739  0.39676  0.50308  Biso   1.000  O
  H23      1.0000 0.07710  0.37380  0.50490  Biso   1.000  H
  H24      1.0000 0.98460  0.37330  0.51500  Biso   1.000  H
  O114     1.0000 0.06520  0.40090  0.94930  Biso   1.000  O
  Mo19     1.0000 0.64585  0.91320  0.85571  Biso   1.000  Mo
  Mo20     1.0000 0.61434  0.07641  0.81814  Biso   1.000  Mo
  Mo21     1.0000 0.71407  0.08375  0.23752  Biso   1.000  Mo
  Mo22     1.0000 0.64496  0.14873  0.98145  Biso   1.000  Mo
  Mo23     1.0000 0.73447  0.96266  0.26482  Biso   1.000  Mo
  Mo24     1.0000 0.69273  0.86464  0.04373  Biso   1.000  Mo
  Sr7      1.0000 0.86874  0.14137  0.82050  Biso   1.000  Sr
  Sr8      1.0000 0.01470  0.01794  0.28651  Biso   1.000  Sr
  P13      1.0000 0.77776  0.99613  0.74847  Biso   1.000  P
  P14      1.0000 0.78827  0.01427  0.05486  Biso   1.000  P
  P15      1.0000 0.91027  0.86219  0.25881  Biso   1.000  P
  P16      1.0000 0.81058  0.21811  0.19853  Biso   1.000  P
  O115     1.0000 0.68025  0.10332  0.33750  Biso   1.000  O
  O116     1.0000 0.52498  0.11753  0.71968  Biso   1.000  O
  O117     1.0000 0.63464  0.79469  0.00970  Biso   1.000  O
  O118     1.0000 0.57724  0.85402  0.77769  Biso   1.000  O
  O119     1.0000 0.70817  0.95448  0.37346  Biso   1.000  O
  O120     1.0000 0.58033  0.92286  0.95854  Biso   1.000  O
  O121     1.0000 0.54945  0.98720  0.76931  Biso   1.000  O
  O122     1.0000 0.74899  0.07432  0.09037  Biso   1.000  O
  O123     1.0000 0.61008  0.14094  0.11755  Biso   1.000  O
  O124     1.0000 0.55517  0.07429  0.92642  Biso   1.000  O
  O125     1.0000 0.61802  0.01387  0.16820  Biso   1.000  O
  O126     1.0000 0.83612  0.03042  0.30159  Biso   1.000  O
  O127     1.0000 0.90202  0.02005  0.08071  Biso   1.000  O
  O128     1.0000 0.72246  0.00450  0.93457  Biso   1.000  O
  O129     1.0000 0.70683  0.05354  0.74071  Biso   1.000  O
  O130     1.0000 0.73096  0.93567  0.77182  Biso   1.000  O
  O131     1.0000 0.78872  0.98855  0.64273  Biso   1.000  O
  O132     1.0000 0.76840  0.95789  0.11627  Biso   1.000  O
  O133     1.0000 0.72424  0.13547  0.89602  Biso   1.000  O
  O134     1.0000 0.77114  0.87446  0.95719  Biso   1.000  O
  O135     1.0000 0.98704  0.89828  0.23046  Biso   1.000  O
  O136     1.0000 0.81693  0.15682  0.26013  Biso   1.000  O
  O137     1.0000 0.76612  0.20476  0.07726  Biso   1.000  O
  O138     1.0000 0.56231  0.20737  0.92173  Biso   1.000  O
  O139     1.0000 0.85981  0.90276  0.31721  Biso   1.000  O
  O140     1.0000 0.82689  0.83005  0.16057  Biso   1.000  O
  O141     1.0000 0.88438  0.01194  0.83566  Biso   1.000  O
  O142     1.0000 0.73986  0.26671  0.22330  Biso   1.000  O
  H25      1.0000 0.68580  0.24960  0.21680  Biso   1.000  H
  O143     1.0000 0.65290  0.88524  0.17489  Biso   1.000  O
  O144     1.0000 0.96589  0.80789  0.34011  Biso   1.000  O
  H26      1.0000 0.00420  0.78860  0.31900  Biso   1.000  H
  O145     1.0000 0.91420  0.24964  0.23555  Biso   1.000  O
  O146     1.0000 0.01340  0.11220  0.41640  Biso   1.000  O
  O147     1.0000 0.07600  0.95594  0.46500  Biso   1.000  O
  O148     1.0000 0.80420  0.13112  0.60670  Biso   1.000  O
  O149     1.0000 0.90500  0.22523  0.96690  Biso   1.000  O
  H27      1.0000 0.86100  0.22610  0.99460  Biso   1.000  H
  H28      1.0000 0.94760  0.25500  0.99450  Biso   1.000  H
  O150     1.0000 0.03870  0.13199  0.20950  Biso   1.000  O
  H29      1.0000 0.06830  0.13470  0.16650  Biso   1.000  H
  H30      1.0000 0.01670  0.16500  0.22860  Biso   1.000  H
  O151     1.0000 0.97261  0.89676  0.99692  Biso   1.000  O
  H31      1.0000 0.92290  0.87380  0.99510  Biso   1.000  H
  H32      1.0000 0.01540  0.87330  0.98500  Biso   1.000  H
  O152     1.0000 0.93480  0.90090  0.55070  Biso   1.000  O
  Mn1      1.0000 0.00000  0.50000  0.50000  Biso   1.000  Mn
  Mn2      1.0000 0.00000  0.00000  0.00000  Biso   1.000  Mn
  Mn3      1.0000 0.50000  0.50000  0.50000  Biso   1.000  Mn
  Mn4      1.0000 0.50000  0.00000  0.00000  Biso   1.000  Mn
