data_image0
_cell_length_a       16.1578
_cell_length_b       18.1039
_cell_length_c       18.807
_cell_angle_alpha    90
_cell_angle_beta     90
_cell_angle_gamma    92.615

_symmetry_space_group_name_H-M    P 1
_symmetry_int_tables_number       1

loop_
  _symmetry_equiv_pos_as_xyz
  'x, y, z'

loop_
  _atom_site_label
  _atom_site_occupancy
  _atom_site_fract_x
  _atom_site_fract_y
  _atom_site_fract_z
  _atom_site_thermal_displace_type
  _atom_site_B_iso_or_equiv
  _atom_site_type_symbol
  Zn1      1.0000 0.63455  0.32766  0.49980  Biso   1.000  Zn
  Zn2      1.0000 0.81421  0.35782  0.50078  Biso   1.000  Zn
  Zn3      1.0000 0.63455  0.82766  0.00020  Biso   1.000  Zn
  Zn4      1.0000 0.81421  0.85782  0.99922  Biso   1.000  Zn
  H1       1.0000 0.57600  0.49500  0.65300  Biso   1.000  H
  H2       1.0000 0.55800  0.58640  0.74330  Biso   1.000  H
  H3       1.0000 0.62900  0.66650  0.83580  Biso   1.000  H
  H4       1.0000 0.87300  0.66460  0.87300  Biso   1.000  H
  H5       1.0000 0.88500  0.56880  0.78880  Biso   1.000  H
  H6       1.0000 0.82540  0.48700  0.69280  Biso   1.000  H
  H7       1.0000 0.58500  0.46920  0.32250  Biso   1.000  H
  H8       1.0000 0.57000  0.54970  0.22880  Biso   1.000  H
  H9       1.0000 0.63140  0.64860  0.15040  Biso   1.000  H
  H10      1.0000 0.86300  0.73290  0.19130  Biso   1.000  H
  H11      1.0000 0.88400  0.64720  0.28170  Biso   1.000  H
  H12      1.0000 0.82170  0.54860  0.35870  Biso   1.000  H
  H13      1.0000 0.95590  0.30770  0.57580  Biso   1.000  H
  H14      1.0000 0.10200  0.31200  0.57400  Biso   1.000  H
  H15      1.0000 0.22600  0.43100  0.46760  Biso   1.000  H
  H16      1.0000 0.22500  0.28910  0.53140  Biso   1.000  H
  H17      1.0000 0.34400  0.22800  0.53200  Biso   1.000  H
  H18      1.0000 0.48500  0.22400  0.52500  Biso   1.000  H
  H19      1.0000 0.50400  0.42860  0.48090  Biso   1.000  H
  H20      1.0000 0.37100  0.43880  0.48500  Biso   1.000  H
  H21      1.0000 0.08570  0.45740  0.41580  Biso   1.000  H
  H22      1.0000 0.94630  0.44470  0.42090  Biso   1.000  H
  H23      1.0000 0.57600  0.99500  0.84700  Biso   1.000  H
  H24      1.0000 0.55800  0.08640  0.75670  Biso   1.000  H
  H25      1.0000 0.62900  0.16650  0.66420  Biso   1.000  H
  H26      1.0000 0.87300  0.16460  0.62700  Biso   1.000  H
  H27      1.0000 0.88500  0.06880  0.71120  Biso   1.000  H
  H28      1.0000 0.82540  0.98700  0.80720  Biso   1.000  H
  H29      1.0000 0.58500  0.96920  0.17750  Biso   1.000  H
  H30      1.0000 0.57000  0.04970  0.27120  Biso   1.000  H
  H31      1.0000 0.63140  0.14860  0.34960  Biso   1.000  H
  H32      1.0000 0.86300  0.23290  0.30870  Biso   1.000  H
  H33      1.0000 0.88400  0.14720  0.21830  Biso   1.000  H
  H34      1.0000 0.82170  0.04860  0.14130  Biso   1.000  H
  H35      1.0000 0.95590  0.80770  0.92420  Biso   1.000  H
  H36      1.0000 0.10200  0.81200  0.92600  Biso   1.000  H
  H37      1.0000 0.22600  0.93100  0.03240  Biso   1.000  H
  H38      1.0000 0.22500  0.78910  0.96860  Biso   1.000  H
  H39      1.0000 0.34400  0.72800  0.96800  Biso   1.000  H
  H40      1.0000 0.48500  0.72400  0.97500  Biso   1.000  H
  H41      1.0000 0.50400  0.92860  0.01910  Biso   1.000  H
  H42      1.0000 0.37100  0.93880  0.01500  Biso   1.000  H
  H43      1.0000 0.08570  0.95740  0.08420  Biso   1.000  H
  H44      1.0000 0.94630  0.94470  0.07910  Biso   1.000  H
  C1       1.0000 0.71177  0.43349  0.60408  Biso   1.000  C
  C2       1.0000 0.70257  0.48641  0.66462  Biso   1.000  C
  C3       1.0000 0.62339  0.51299  0.68047  Biso   1.000  C
  C4       1.0000 0.61455  0.56406  0.73251  Biso   1.000  C
  C5       1.0000 0.68437  0.59159  0.77185  Biso   1.000  C
  C6       1.0000 0.67820  0.64721  0.82376  Biso   1.000  C
  C7       1.0000 0.74697  0.67490  0.85965  Biso   1.000  C
  C8       1.0000 0.82483  0.64501  0.84667  Biso   1.000  C
  C9       1.0000 0.83279  0.59054  0.79749  Biso   1.000  C
  C10      1.0000 0.76335  0.56316  0.75770  Biso   1.000  C
  C11      1.0000 0.77015  0.51023  0.70342  Biso   1.000  C
  C12      1.0000 0.73899  0.73659  0.91201  Biso   1.000  C
  C13      1.0000 0.71190  0.44572  0.40852  Biso   1.000  C
  C14      1.0000 0.70381  0.50138  0.35042  Biso   1.000  C
  C15      1.0000 0.62872  0.50363  0.31213  Biso   1.000  C
  C16      1.0000 0.62072  0.55100  0.25725  Biso   1.000  C
  C17      1.0000 0.68718  0.60052  0.23733  Biso   1.000  C
  C18      1.0000 0.68090  0.65094  0.18043  Biso   1.000  C
  C19      1.0000 0.74597  0.69825  0.16249  Biso   1.000  C
  C20      1.0000 0.82090  0.69646  0.20073  Biso   1.000  C
  C21      1.0000 0.82957  0.64874  0.25565  Biso   1.000  C
  C22      1.0000 0.76271  0.59950  0.27585  Biso   1.000  C
  C23      1.0000 0.76920  0.54856  0.33225  Biso   1.000  C
  C24      1.0000 0.73635  0.75133  0.10229  Biso   1.000  C
  C25      1.0000 0.98416  0.33613  0.54469  Biso   1.000  C
  C26      1.0000 0.06942  0.33950  0.54394  Biso   1.000  C
  C27      1.0000 0.11141  0.38371  0.49398  Biso   1.000  C
  C28      1.0000 0.20185  0.38621  0.48881  Biso   1.000  C
  C29      1.0000 0.24771  0.33278  0.51264  Biso   1.000  C
  C30      1.0000 0.33810  0.33165  0.50830  Biso   1.000  C
  C31      1.0000 0.37709  0.26615  0.52090  Biso   1.000  C
  C32      1.0000 0.46177  0.26462  0.51641  Biso   1.000  C
  C33      1.0000 0.47193  0.38763  0.48901  Biso   1.000  C
  C34      1.0000 0.38830  0.39366  0.49225  Biso   1.000  C
  C35      1.0000 0.06393  0.42522  0.44928  Biso   1.000  C
  C36      1.0000 0.97881  0.41842  0.45301  Biso   1.000  C
  C37      1.0000 0.71177  0.93349  0.89592  Biso   1.000  C
  C38      1.0000 0.70257  0.98641  0.83538  Biso   1.000  C
  C39      1.0000 0.62339  0.01299  0.81953  Biso   1.000  C
  C40      1.0000 0.61455  0.06406  0.76749  Biso   1.000  C
  C41      1.0000 0.68437  0.09159  0.72815  Biso   1.000  C
  C42      1.0000 0.67820  0.14721  0.67624  Biso   1.000  C
  C43      1.0000 0.74697  0.17490  0.64035  Biso   1.000  C
  C44      1.0000 0.82483  0.14501  0.65333  Biso   1.000  C
  C45      1.0000 0.83279  0.09054  0.70251  Biso   1.000  C
  C46      1.0000 0.76335  0.06316  0.74230  Biso   1.000  C
  C47      1.0000 0.77015  0.01023  0.79658  Biso   1.000  C
  C48      1.0000 0.73899  0.23659  0.58799  Biso   1.000  C
  C49      1.0000 0.71190  0.94572  0.09148  Biso   1.000  C
  C50      1.0000 0.70381  0.00138  0.14958  Biso   1.000  C
  C51      1.0000 0.62872  0.00363  0.18787  Biso   1.000  C
  C52      1.0000 0.62072  0.05100  0.24275  Biso   1.000  C
  C53      1.0000 0.68718  0.10052  0.26267  Biso   1.000  C
  C54      1.0000 0.68090  0.15094  0.31957  Biso   1.000  C
  C55      1.0000 0.74597  0.19825  0.33751  Biso   1.000  C
  C56      1.0000 0.82090  0.19646  0.29927  Biso   1.000  C
  C57      1.0000 0.82957  0.14874  0.24435  Biso   1.000  C
  C58      1.0000 0.76271  0.09950  0.22415  Biso   1.000  C
  C59      1.0000 0.76920  0.04856  0.16775  Biso   1.000  C
  C60      1.0000 0.73635  0.25133  0.39771  Biso   1.000  C
  C61      1.0000 0.98416  0.83613  0.95531  Biso   1.000  C
  C62      1.0000 0.06942  0.83950  0.95606  Biso   1.000  C
  C63      1.0000 0.11141  0.88371  0.00602  Biso   1.000  C
  C64      1.0000 0.20185  0.88621  0.01119  Biso   1.000  C
  C65      1.0000 0.24771  0.83278  0.98736  Biso   1.000  C
  C66      1.0000 0.33810  0.83165  0.99170  Biso   1.000  C
  C67      1.0000 0.37709  0.76615  0.97910  Biso   1.000  C
  C68      1.0000 0.46177  0.76462  0.98359  Biso   1.000  C
  C69      1.0000 0.47193  0.88763  0.01099  Biso   1.000  C
  C70      1.0000 0.38830  0.89366  0.00775  Biso   1.000  C
  C71      1.0000 0.06393  0.92522  0.05072  Biso   1.000  C
  C72      1.0000 0.97881  0.91842  0.04699  Biso   1.000  C
  N1       1.0000 0.93867  0.37381  0.49922  Biso   1.000  N
  N2       1.0000 0.50949  0.32408  0.50069  Biso   1.000  N
  N3       1.0000 0.93867  0.87381  0.00078  Biso   1.000  N
  N4       1.0000 0.50949  0.82408  0.99931  Biso   1.000  N
  O1       1.0000 0.64701  0.41462  0.56994  Biso   1.000  O
  O2       1.0000 0.78319  0.41233  0.59103  Biso   1.000  O
  O3       1.0000 0.80434  0.76161  0.94138  Biso   1.000  O
  O4       1.0000 0.66743  0.75930  0.92152  Biso   1.000  O
  O5       1.0000 0.78037  0.44533  0.44100  Biso   1.000  O
  O6       1.0000 0.64997  0.40350  0.42020  Biso   1.000  O
  O7       1.0000 0.66772  0.75007  0.07086  Biso   1.000  O
  O8       1.0000 0.79828  0.79387  0.08826  Biso   1.000  O
  O9       1.0000 0.64701  0.91462  0.93006  Biso   1.000  O
  O10      1.0000 0.78319  0.91233  0.90897  Biso   1.000  O
  O11      1.0000 0.80434  0.26161  0.55862  Biso   1.000  O
  O12      1.0000 0.66743  0.25930  0.57848  Biso   1.000  O
  O13      1.0000 0.78037  0.94533  0.05900  Biso   1.000  O
  O14      1.0000 0.64997  0.90350  0.07980  Biso   1.000  O
  O15      1.0000 0.66772  0.25007  0.42914  Biso   1.000  O
  O16      1.0000 0.79828  0.29387  0.41174  Biso   1.000  O
  Zn5      1.0000 0.36545  0.17234  0.99980  Biso   1.000  Zn
  Zn6      1.0000 0.18579  0.14217  0.00078  Biso   1.000  Zn
  Zn7      1.0000 0.36545  0.67234  0.50020  Biso   1.000  Zn
  Zn8      1.0000 0.18579  0.64217  0.49922  Biso   1.000  Zn
  H45      1.0000 0.42400  0.00500  0.15300  Biso   1.000  H
  H46      1.0000 0.44200  0.91360  0.24330  Biso   1.000  H
  H47      1.0000 0.37100  0.83350  0.33580  Biso   1.000  H
  H48      1.0000 0.12700  0.83540  0.37300  Biso   1.000  H
  H49      1.0000 0.11500  0.93120  0.28880  Biso   1.000  H
  H50      1.0000 0.17460  0.01300  0.19280  Biso   1.000  H
  H51      1.0000 0.41500  0.03080  0.82250  Biso   1.000  H
  H52      1.0000 0.43000  0.95030  0.72880  Biso   1.000  H
  H53      1.0000 0.36860  0.85140  0.65040  Biso   1.000  H
  H54      1.0000 0.13700  0.76710  0.69130  Biso   1.000  H
  H55      1.0000 0.11600  0.85280  0.78170  Biso   1.000  H
  H56      1.0000 0.17830  0.95140  0.85870  Biso   1.000  H
  H57      1.0000 0.04410  0.19230  0.07580  Biso   1.000  H
  H58      1.0000 0.89800  0.18800  0.07400  Biso   1.000  H
  H59      1.0000 0.77400  0.06900  0.96760  Biso   1.000  H
  H60      1.0000 0.77500  0.21090  0.03140  Biso   1.000  H
  H61      1.0000 0.65600  0.27200  0.03200  Biso   1.000  H
  H62      1.0000 0.51500  0.27600  0.02500  Biso   1.000  H
  H63      1.0000 0.49600  0.07140  0.98090  Biso   1.000  H
  H64      1.0000 0.62900  0.06120  0.98500  Biso   1.000  H
  H65      1.0000 0.91430  0.04260  0.91580  Biso   1.000  H
  H66      1.0000 0.05370  0.05530  0.92090  Biso   1.000  H
  H67      1.0000 0.42400  0.50500  0.34700  Biso   1.000  H
  H68      1.0000 0.44200  0.41360  0.25670  Biso   1.000  H
  H69      1.0000 0.37100  0.33350  0.16420  Biso   1.000  H
  H70      1.0000 0.12700  0.33540  0.12700  Biso   1.000  H
  H71      1.0000 0.11500  0.43120  0.21120  Biso   1.000  H
  H72      1.0000 0.17460  0.51300  0.30720  Biso   1.000  H
  H73      1.0000 0.41500  0.53080  0.67750  Biso   1.000  H
  H74      1.0000 0.43000  0.45030  0.77120  Biso   1.000  H
  H75      1.0000 0.36860  0.35140  0.84960  Biso   1.000  H
  H76      1.0000 0.13700  0.26710  0.80870  Biso   1.000  H
  H77      1.0000 0.11600  0.35280  0.71830  Biso   1.000  H
  H78      1.0000 0.17830  0.45140  0.64130  Biso   1.000  H
  H79      1.0000 0.04410  0.69230  0.42420  Biso   1.000  H
  H80      1.0000 0.89800  0.68800  0.42600  Biso   1.000  H
  H81      1.0000 0.77400  0.56900  0.53240  Biso   1.000  H
  H82      1.0000 0.77500  0.71090  0.46860  Biso   1.000  H
  H83      1.0000 0.65600  0.77200  0.46800  Biso   1.000  H
  H84      1.0000 0.51500  0.77600  0.47500  Biso   1.000  H
  H85      1.0000 0.49600  0.57140  0.51910  Biso   1.000  H
  H86      1.0000 0.62900  0.56120  0.51500  Biso   1.000  H
  H87      1.0000 0.91430  0.54260  0.58420  Biso   1.000  H
  H88      1.0000 0.05370  0.55530  0.57910  Biso   1.000  H
  C73      1.0000 0.28823  0.06651  0.10408  Biso   1.000  C
  C74      1.0000 0.29743  0.01359  0.16462  Biso   1.000  C
  C75      1.0000 0.37661  0.98701  0.18047  Biso   1.000  C
  C76      1.0000 0.38545  0.93594  0.23251  Biso   1.000  C
  C77      1.0000 0.31563  0.90841  0.27185  Biso   1.000  C
  C78      1.0000 0.32180  0.85279  0.32376  Biso   1.000  C
  C79      1.0000 0.25303  0.82510  0.35965  Biso   1.000  C
  C80      1.0000 0.17517  0.85499  0.34667  Biso   1.000  C
  C81      1.0000 0.16721  0.90946  0.29749  Biso   1.000  C
  C82      1.0000 0.23665  0.93684  0.25770  Biso   1.000  C
  C83      1.0000 0.22985  0.98977  0.20342  Biso   1.000  C
  C84      1.0000 0.26101  0.76341  0.41201  Biso   1.000  C
  C85      1.0000 0.28810  0.05428  0.90852  Biso   1.000  C
  C86      1.0000 0.29619  0.99862  0.85042  Biso   1.000  C
  C87      1.0000 0.37128  0.99637  0.81213  Biso   1.000  C
  C88      1.0000 0.37928  0.94900  0.75725  Biso   1.000  C
  C89      1.0000 0.31282  0.89948  0.73733  Biso   1.000  C
  C90      1.0000 0.31910  0.84906  0.68043  Biso   1.000  C
  C91      1.0000 0.25403  0.80175  0.66249  Biso   1.000  C
  C92      1.0000 0.17910  0.80354  0.70073  Biso   1.000  C
  C93      1.0000 0.17043  0.85126  0.75565  Biso   1.000  C
  C94      1.0000 0.23729  0.90050  0.77585  Biso   1.000  C
  C95      1.0000 0.23080  0.95144  0.83225  Biso   1.000  C
  C96      1.0000 0.26365  0.74867  0.60229  Biso   1.000  C
  C97      1.0000 0.01584  0.16387  0.04469  Biso   1.000  C
  C98      1.0000 0.93058  0.16050  0.04394  Biso   1.000  C
  C99      1.0000 0.88859  0.11629  0.99398  Biso   1.000  C
  C100     1.0000 0.79815  0.11379  0.98881  Biso   1.000  C
  C101     1.0000 0.75229  0.16722  0.01264  Biso   1.000  C
  C102     1.0000 0.66190  0.16835  0.00830  Biso   1.000  C
  C103     1.0000 0.62291  0.23385  0.02090  Biso   1.000  C
  C104     1.0000 0.53823  0.23538  0.01641  Biso   1.000  C
  C105     1.0000 0.52807  0.11237  0.98901  Biso   1.000  C
  C106     1.0000 0.61170  0.10634  0.99225  Biso   1.000  C
  C107     1.0000 0.93607  0.07478  0.94928  Biso   1.000  C
  C108     1.0000 0.02119  0.08158  0.95301  Biso   1.000  C
  C109     1.0000 0.28823  0.56651  0.39592  Biso   1.000  C
  C110     1.0000 0.29743  0.51359  0.33538  Biso   1.000  C
  C111     1.0000 0.37661  0.48701  0.31953  Biso   1.000  C
  C112     1.0000 0.38545  0.43594  0.26749  Biso   1.000  C
  C113     1.0000 0.31563  0.40841  0.22815  Biso   1.000  C
  C114     1.0000 0.32180  0.35279  0.17624  Biso   1.000  C
  C115     1.0000 0.25303  0.32510  0.14035  Biso   1.000  C
  C116     1.0000 0.17517  0.35499  0.15333  Biso   1.000  C
  C117     1.0000 0.16721  0.40946  0.20251  Biso   1.000  C
  C118     1.0000 0.23665  0.43684  0.24230  Biso   1.000  C
  C119     1.0000 0.22985  0.48977  0.29658  Biso   1.000  C
  C120     1.0000 0.26101  0.26341  0.08799  Biso   1.000  C
  C121     1.0000 0.28810  0.55428  0.59148  Biso   1.000  C
  C122     1.0000 0.29619  0.49862  0.64958  Biso   1.000  C
  C123     1.0000 0.37128  0.49637  0.68787  Biso   1.000  C
  C124     1.0000 0.37928  0.44900  0.74275  Biso   1.000  C
  C125     1.0000 0.31282  0.39948  0.76267  Biso   1.000  C
  C126     1.0000 0.31910  0.34906  0.81957  Biso   1.000  C
  C127     1.0000 0.25403  0.30175  0.83751  Biso   1.000  C
  C128     1.0000 0.17910  0.30354  0.79927  Biso   1.000  C
  C129     1.0000 0.17043  0.35126  0.74435  Biso   1.000  C
  C130     1.0000 0.23729  0.40050  0.72415  Biso   1.000  C
  C131     1.0000 0.23080  0.45144  0.66775  Biso   1.000  C
  C132     1.0000 0.26365  0.24867  0.89771  Biso   1.000  C
  C133     1.0000 0.01584  0.66387  0.45531  Biso   1.000  C
  C134     1.0000 0.93058  0.66050  0.45606  Biso   1.000  C
  C135     1.0000 0.88859  0.61629  0.50602  Biso   1.000  C
  C136     1.0000 0.79815  0.61379  0.51119  Biso   1.000  C
  C137     1.0000 0.75229  0.66722  0.48736  Biso   1.000  C
  C138     1.0000 0.66190  0.66835  0.49170  Biso   1.000  C
  C139     1.0000 0.62291  0.73385  0.47910  Biso   1.000  C
  C140     1.0000 0.53823  0.73538  0.48359  Biso   1.000  C
  C141     1.0000 0.52807  0.61237  0.51099  Biso   1.000  C
  C142     1.0000 0.61170  0.60634  0.50775  Biso   1.000  C
  C143     1.0000 0.93607  0.57478  0.55072  Biso   1.000  C
  C144     1.0000 0.02119  0.58158  0.54699  Biso   1.000  C
  N5       1.0000 0.06133  0.12619  0.99922  Biso   1.000  N
  N6       1.0000 0.49051  0.17592  0.00069  Biso   1.000  N
  N7       1.0000 0.06133  0.62619  0.50078  Biso   1.000  N
  N8       1.0000 0.49051  0.67592  0.49931  Biso   1.000  N
  O17      1.0000 0.35299  0.08538  0.06994  Biso   1.000  O
  O18      1.0000 0.21681  0.08767  0.09103  Biso   1.000  O
  O19      1.0000 0.19566  0.73839  0.44138  Biso   1.000  O
  O20      1.0000 0.33257  0.74070  0.42152  Biso   1.000  O
  O21      1.0000 0.21963  0.05467  0.94100  Biso   1.000  O
  O22      1.0000 0.35003  0.09650  0.92020  Biso   1.000  O
  O23      1.0000 0.33228  0.74993  0.57086  Biso   1.000  O
  O24      1.0000 0.20172  0.70613  0.58826  Biso   1.000  O
  O25      1.0000 0.35299  0.58538  0.43006  Biso   1.000  O
  O26      1.0000 0.21681  0.58767  0.40897  Biso   1.000  O
  O27      1.0000 0.19566  0.23839  0.05862  Biso   1.000  O
  O28      1.0000 0.33257  0.24070  0.07848  Biso   1.000  O
  O29      1.0000 0.21963  0.55467  0.55900  Biso   1.000  O
  O30      1.0000 0.35003  0.59650  0.57980  Biso   1.000  O
  O31      1.0000 0.33228  0.24993  0.92914  Biso   1.000  O
  O32      1.0000 0.20172  0.20613  0.91174  Biso   1.000  O
