data_image0
_cell_length_a       14.728
_cell_length_b       14.728
_cell_length_c       14.728
_cell_angle_alpha    90
_cell_angle_beta     90
_cell_angle_gamma    90

_symmetry_space_group_name_H-M    "P 1"
_symmetry_int_tables_number       1

loop_
  _symmetry_equiv_pos_as_xyz
  'x, y, z'

loop_
  _atom_site_label
  _atom_site_occupancy
  _atom_site_fract_x
  _atom_site_fract_y
  _atom_site_fract_z
  _atom_site_thermal_displace_type
  _atom_site_B_iso_or_equiv
  _atom_site_type_symbol
  O1       1.0000 0.20650  0.18080  0.05050  Biso   1.000  O
  O2       1.0000 0.15870  0.05720  0.97520  Biso   1.000  O
  C1       1.0000 0.21100  0.12480  0.99160  Biso   1.000  C
  C2       1.0000 0.28980  0.13120  0.92190  Biso   1.000  C
  C3       1.0000 0.34860  0.20440  0.93490  Biso   1.000  C
  O3       1.0000 0.33020  0.17630  0.20520  Biso   1.000  O
  C4       1.0000 0.39720  0.09680  0.22820  Biso   1.000  C
  C5       1.0000 0.42610  0.02960  0.14060  Biso   1.000  C
  N1       1.0000 0.94390  0.93150  0.95860  Biso   1.000  N
  O4       1.0000 0.92670  0.97220  0.01160  Biso   1.000  O
  H1       1.0000 0.33840  0.24940  0.98090  Biso   1.000  H
  H2       1.0000 0.37290  0.06070  0.27680  Biso   1.000  H
  H3       1.0000 0.45250  0.12270  0.25110  Biso   1.000  H
  H4       1.0000 0.46780  0.98690  0.16670  Biso   1.000  H
  H5       1.0000 0.37390  0.99790  0.11790  Biso   1.000  H
  H6       1.0000 0.45530  0.06130  0.09160  Biso   1.000  H
  O5       1.0000 0.29350  0.81920  0.55050  Biso   1.000  O
  O6       1.0000 0.34130  0.94280  0.47520  Biso   1.000  O
  C6       1.0000 0.28900  0.87520  0.49160  Biso   1.000  C
  C7       1.0000 0.21020  0.86880  0.42190  Biso   1.000  C
  C8       1.0000 0.15140  0.79560  0.43490  Biso   1.000  C
  O7       1.0000 0.16980  0.82370  0.70520  Biso   1.000  O
  C9       1.0000 0.10280  0.90320  0.72820  Biso   1.000  C
  C10      1.0000 0.07390  0.97040  0.64060  Biso   1.000  C
  N2       1.0000 0.55610  0.06850  0.45860  Biso   1.000  N
  O8       1.0000 0.57330  0.02780  0.51160  Biso   1.000  O
  H7       1.0000 0.16160  0.75060  0.48090  Biso   1.000  H
  H8       1.0000 0.12710  0.93930  0.77680  Biso   1.000  H
  H9       1.0000 0.04750  0.87730  0.75110  Biso   1.000  H
  H10      1.0000 0.03220  0.01310  0.66670  Biso   1.000  H
  H11      1.0000 0.12610  0.00210  0.61790  Biso   1.000  H
  H12      1.0000 0.04470  0.93870  0.59160  Biso   1.000  H
  O9       1.0000 0.79350  0.68080  0.44950  Biso   1.000  O
  O10      1.0000 0.84130  0.55720  0.52480  Biso   1.000  O
  C11      1.0000 0.78900  0.62480  0.50840  Biso   1.000  C
  C12      1.0000 0.71020  0.63120  0.57810  Biso   1.000  C
  C13      1.0000 0.65140  0.70440  0.56510  Biso   1.000  C
  O11      1.0000 0.66980  0.67630  0.29480  Biso   1.000  O
  C14      1.0000 0.60280  0.59680  0.27180  Biso   1.000  C
  C15      1.0000 0.57390  0.52960  0.35940  Biso   1.000  C
  N3       1.0000 0.05610  0.43150  0.54140  Biso   1.000  N
  O12      1.0000 0.07330  0.47220  0.48840  Biso   1.000  O
  H13      1.0000 0.66160  0.74940  0.51910  Biso   1.000  H
  H14      1.0000 0.62710  0.56070  0.22320  Biso   1.000  H
  H15      1.0000 0.54750  0.62270  0.24890  Biso   1.000  H
  H16      1.0000 0.53220  0.48690  0.33330  Biso   1.000  H
  H17      1.0000 0.62610  0.49790  0.38210  Biso   1.000  H
  H18      1.0000 0.54470  0.56130  0.40840  Biso   1.000  H
  O13      1.0000 0.70650  0.31920  0.94950  Biso   1.000  O
  O14      1.0000 0.65870  0.44280  0.02480  Biso   1.000  O
  C16      1.0000 0.71100  0.37520  0.00840  Biso   1.000  C
  C17      1.0000 0.78980  0.36880  0.07810  Biso   1.000  C
  C18      1.0000 0.84860  0.29560  0.06510  Biso   1.000  C
  O15      1.0000 0.83020  0.32370  0.79480  Biso   1.000  O
  C19      1.0000 0.89720  0.40320  0.77180  Biso   1.000  C
  C20      1.0000 0.92610  0.47040  0.85940  Biso   1.000  C
  N4       1.0000 0.44390  0.56850  0.04140  Biso   1.000  N
  O16      1.0000 0.42670  0.52780  0.98840  Biso   1.000  O
  H19      1.0000 0.83840  0.25060  0.01910  Biso   1.000  H
  H20      1.0000 0.87290  0.43930  0.72320  Biso   1.000  H
  H21      1.0000 0.95250  0.37730  0.74890  Biso   1.000  H
  H22      1.0000 0.96780  0.51310  0.83330  Biso   1.000  H
  H23      1.0000 0.87390  0.50210  0.88210  Biso   1.000  H
  H24      1.0000 0.95530  0.43870  0.90840  Biso   1.000  H
  O17      1.0000 0.05050  0.20650  0.18080  Biso   1.000  O
  O18      1.0000 0.97520  0.15870  0.05720  Biso   1.000  O
  C21      1.0000 0.99160  0.21100  0.12480  Biso   1.000  C
  C22      1.0000 0.92190  0.28980  0.13120  Biso   1.000  C
  C23      1.0000 0.93490  0.34860  0.20440  Biso   1.000  C
  O19      1.0000 0.20520  0.33020  0.17630  Biso   1.000  O
  C24      1.0000 0.22820  0.39720  0.09680  Biso   1.000  C
  C25      1.0000 0.14060  0.42610  0.02960  Biso   1.000  C
  N5       1.0000 0.95860  0.94390  0.93150  Biso   1.000  N
  O20      1.0000 0.01160  0.92670  0.97220  Biso   1.000  O
  H25      1.0000 0.98090  0.33840  0.24940  Biso   1.000  H
  H26      1.0000 0.27680  0.37290  0.06070  Biso   1.000  H
  H27      1.0000 0.25110  0.45250  0.12270  Biso   1.000  H
  H28      1.0000 0.16670  0.46780  0.98690  Biso   1.000  H
  H29      1.0000 0.11790  0.37390  0.99790  Biso   1.000  H
  H30      1.0000 0.09160  0.45530  0.06130  Biso   1.000  H
  O21      1.0000 0.55050  0.29350  0.81920  Biso   1.000  O
  O22      1.0000 0.47520  0.34130  0.94280  Biso   1.000  O
  C26      1.0000 0.49160  0.28900  0.87520  Biso   1.000  C
  C27      1.0000 0.42190  0.21020  0.86880  Biso   1.000  C
  C28      1.0000 0.43490  0.15140  0.79560  Biso   1.000  C
  O23      1.0000 0.70520  0.16980  0.82370  Biso   1.000  O
  C29      1.0000 0.72820  0.10280  0.90320  Biso   1.000  C
  C30      1.0000 0.64060  0.07390  0.97040  Biso   1.000  C
  N6       1.0000 0.45860  0.55610  0.06850  Biso   1.000  N
  O24      1.0000 0.51160  0.57330  0.02780  Biso   1.000  O
  H31      1.0000 0.48090  0.16160  0.75060  Biso   1.000  H
  H32      1.0000 0.77680  0.12710  0.93930  Biso   1.000  H
  H33      1.0000 0.75110  0.04750  0.87730  Biso   1.000  H
  H34      1.0000 0.66670  0.03220  0.01310  Biso   1.000  H
  H35      1.0000 0.61790  0.12610  0.00210  Biso   1.000  H
  H36      1.0000 0.59160  0.04470  0.93870  Biso   1.000  H
  O25      1.0000 0.44950  0.79350  0.68080  Biso   1.000  O
  O26      1.0000 0.52480  0.84130  0.55720  Biso   1.000  O
  C31      1.0000 0.50840  0.78900  0.62480  Biso   1.000  C
  C32      1.0000 0.57810  0.71020  0.63120  Biso   1.000  C
  C33      1.0000 0.56510  0.65140  0.70440  Biso   1.000  C
  O27      1.0000 0.29480  0.66980  0.67630  Biso   1.000  O
  C34      1.0000 0.27180  0.60280  0.59680  Biso   1.000  C
  C35      1.0000 0.35940  0.57390  0.52960  Biso   1.000  C
  N7       1.0000 0.54140  0.05610  0.43150  Biso   1.000  N
  O28      1.0000 0.48840  0.07330  0.47220  Biso   1.000  O
  H37      1.0000 0.51910  0.66160  0.74940  Biso   1.000  H
  H38      1.0000 0.22320  0.62710  0.56070  Biso   1.000  H
  H39      1.0000 0.24890  0.54750  0.62270  Biso   1.000  H
  H40      1.0000 0.33330  0.53220  0.48690  Biso   1.000  H
  H41      1.0000 0.38210  0.62610  0.49790  Biso   1.000  H
  H42      1.0000 0.40840  0.54470  0.56130  Biso   1.000  H
  O29      1.0000 0.94950  0.70650  0.31920  Biso   1.000  O
  O30      1.0000 0.02480  0.65870  0.44280  Biso   1.000  O
  C36      1.0000 0.00840  0.71100  0.37520  Biso   1.000  C
  C37      1.0000 0.07810  0.78980  0.36880  Biso   1.000  C
  C38      1.0000 0.06510  0.84860  0.29560  Biso   1.000  C
  O31      1.0000 0.79480  0.83020  0.32370  Biso   1.000  O
  C39      1.0000 0.77180  0.89720  0.40320  Biso   1.000  C
  C40      1.0000 0.85940  0.92610  0.47040  Biso   1.000  C
  N8       1.0000 0.04140  0.44390  0.56850  Biso   1.000  N
  O32      1.0000 0.98840  0.42670  0.52780  Biso   1.000  O
  H43      1.0000 0.01910  0.83840  0.25060  Biso   1.000  H
  H44      1.0000 0.72320  0.87290  0.43930  Biso   1.000  H
  H45      1.0000 0.74890  0.95250  0.37730  Biso   1.000  H
  H46      1.0000 0.83330  0.96780  0.51310  Biso   1.000  H
  H47      1.0000 0.88210  0.87390  0.50210  Biso   1.000  H
  H48      1.0000 0.90840  0.95530  0.43870  Biso   1.000  H
  O33      1.0000 0.18080  0.05050  0.20650  Biso   1.000  O
  O34      1.0000 0.05720  0.97520  0.15870  Biso   1.000  O
  C41      1.0000 0.12480  0.99160  0.21100  Biso   1.000  C
  C42      1.0000 0.13120  0.92190  0.28980  Biso   1.000  C
  C43      1.0000 0.20440  0.93490  0.34860  Biso   1.000  C
  O35      1.0000 0.17630  0.20520  0.33020  Biso   1.000  O
  C44      1.0000 0.09680  0.22820  0.39720  Biso   1.000  C
  C45      1.0000 0.02960  0.14060  0.42610  Biso   1.000  C
  N9       1.0000 0.93150  0.95860  0.94390  Biso   1.000  N
  O36      1.0000 0.97220  0.01160  0.92670  Biso   1.000  O
  H49      1.0000 0.24940  0.98090  0.33840  Biso   1.000  H
  H50      1.0000 0.06070  0.27680  0.37290  Biso   1.000  H
  H51      1.0000 0.12270  0.25110  0.45250  Biso   1.000  H
  H52      1.0000 0.98690  0.16670  0.46780  Biso   1.000  H
  H53      1.0000 0.99790  0.11790  0.37390  Biso   1.000  H
  H54      1.0000 0.06130  0.09160  0.45530  Biso   1.000  H
  O37      1.0000 0.81920  0.55050  0.29350  Biso   1.000  O
  O38      1.0000 0.94280  0.47520  0.34130  Biso   1.000  O
  C46      1.0000 0.87520  0.49160  0.28900  Biso   1.000  C
  C47      1.0000 0.86880  0.42190  0.21020  Biso   1.000  C
  C48      1.0000 0.79560  0.43490  0.15140  Biso   1.000  C
  O39      1.0000 0.82370  0.70520  0.16980  Biso   1.000  O
  C49      1.0000 0.90320  0.72820  0.10280  Biso   1.000  C
  C50      1.0000 0.97040  0.64060  0.07390  Biso   1.000  C
  N10      1.0000 0.06850  0.45860  0.55610  Biso   1.000  N
  O40      1.0000 0.02780  0.51160  0.57330  Biso   1.000  O
  H55      1.0000 0.75060  0.48090  0.16160  Biso   1.000  H
  H56      1.0000 0.93930  0.77680  0.12710  Biso   1.000  H
  H57      1.0000 0.87730  0.75110  0.04750  Biso   1.000  H
  H58      1.0000 0.01310  0.66670  0.03220  Biso   1.000  H
  H59      1.0000 0.00210  0.61790  0.12610  Biso   1.000  H
  H60      1.0000 0.93870  0.59160  0.04470  Biso   1.000  H
  O41      1.0000 0.68080  0.44950  0.79350  Biso   1.000  O
  O42      1.0000 0.55720  0.52480  0.84130  Biso   1.000  O
  C51      1.0000 0.62480  0.50840  0.78900  Biso   1.000  C
  C52      1.0000 0.63120  0.57810  0.71020  Biso   1.000  C
  C53      1.0000 0.70440  0.56510  0.65140  Biso   1.000  C
  O43      1.0000 0.67630  0.29480  0.66980  Biso   1.000  O
  C54      1.0000 0.59680  0.27180  0.60280  Biso   1.000  C
  C55      1.0000 0.52960  0.35940  0.57390  Biso   1.000  C
  N11      1.0000 0.43150  0.54140  0.05610  Biso   1.000  N
  O44      1.0000 0.47220  0.48840  0.07330  Biso   1.000  O
  H61      1.0000 0.74940  0.51910  0.66160  Biso   1.000  H
  H62      1.0000 0.56070  0.22320  0.62710  Biso   1.000  H
  H63      1.0000 0.62270  0.24890  0.54750  Biso   1.000  H
  H64      1.0000 0.48690  0.33330  0.53220  Biso   1.000  H
  H65      1.0000 0.49790  0.38210  0.62610  Biso   1.000  H
  H66      1.0000 0.56130  0.40840  0.54470  Biso   1.000  H
  O45      1.0000 0.31920  0.94950  0.70650  Biso   1.000  O
  O46      1.0000 0.44280  0.02480  0.65870  Biso   1.000  O
  C56      1.0000 0.37520  0.00840  0.71100  Biso   1.000  C
  C57      1.0000 0.36880  0.07810  0.78980  Biso   1.000  C
  C58      1.0000 0.29560  0.06510  0.84860  Biso   1.000  C
  O47      1.0000 0.32370  0.79480  0.83020  Biso   1.000  O
  C59      1.0000 0.40320  0.77180  0.89720  Biso   1.000  C
  C60      1.0000 0.47040  0.85940  0.92610  Biso   1.000  C
  N12      1.0000 0.56850  0.04140  0.44390  Biso   1.000  N
  O48      1.0000 0.52780  0.98840  0.42670  Biso   1.000  O
  H67      1.0000 0.25060  0.01910  0.83840  Biso   1.000  H
  H68      1.0000 0.43930  0.72320  0.87290  Biso   1.000  H
  H69      1.0000 0.37730  0.74890  0.95250  Biso   1.000  H
  H70      1.0000 0.51310  0.83330  0.96780  Biso   1.000  H
  H71      1.0000 0.50210  0.88210  0.87390  Biso   1.000  H
  H72      1.0000 0.43870  0.90840  0.95530  Biso   1.000  H
  Zn1      1.0000 0.18670  0.18670  0.18670  Biso   1.000  Zn
  Zn2      1.0000 0.04680  0.04680  0.04680  Biso   1.000  Zn
  O49      1.0000 0.89530  0.89530  0.89530  Biso   1.000  O
  Zn3      1.0000 0.31330  0.81330  0.68670  Biso   1.000  Zn
  Zn4      1.0000 0.45320  0.95320  0.54680  Biso   1.000  Zn
  O50      1.0000 0.60470  0.10470  0.39530  Biso   1.000  O
  Zn5      1.0000 0.81330  0.68670  0.31330  Biso   1.000  Zn
  Zn6      1.0000 0.95320  0.54680  0.45320  Biso   1.000  Zn
  O51      1.0000 0.10470  0.39530  0.60470  Biso   1.000  O
  Zn7      1.0000 0.68670  0.31330  0.81330  Biso   1.000  Zn
  Zn8      1.0000 0.54680  0.45320  0.95320  Biso   1.000  Zn
  O52      1.0000 0.39530  0.60470  0.10470  Biso   1.000  O
