data_image0
_cell_length_a       13.959
_cell_length_b       13.959
_cell_length_c       20.0475
_cell_angle_alpha    90
_cell_angle_beta     90
_cell_angle_gamma    90

_symmetry_space_group_name_H-M    "P 1"
_symmetry_int_tables_number       1

loop_
  _symmetry_equiv_pos_as_xyz
  'x, y, z'

loop_
  _atom_site_label
  _atom_site_occupancy
  _atom_site_fract_x
  _atom_site_fract_y
  _atom_site_fract_z
  _atom_site_thermal_displace_type
  _atom_site_B_iso_or_equiv
  _atom_site_type_symbol
  N1       1.0000 0.89450  0.17860  0.06850  Biso   1.000  N
  O1       1.0000 0.91120  0.20310  0.07320  Biso   1.000  O
  C1       1.0000 0.87870  0.23130  0.12060  Biso   1.000  C
  H1       1.0000 0.02750  0.39750  0.98300  Biso   1.000  H
  H2       1.0000 0.96400  0.39070  0.04360  Biso   1.000  H
  H3       1.0000 0.91470  0.28500  0.13160  Biso   1.000  H
  C2       1.0000 0.84350  0.27520  0.19180  Biso   1.000  C
  H4       1.0000 0.86200  0.34300  0.23000  Biso   1.000  H
  H5       1.0000 0.89740  0.30370  0.17300  Biso   1.000  H
  N2       1.0000 0.39450  0.67860  0.56850  Biso   1.000  N
  O2       1.0000 0.41120  0.70310  0.57320  Biso   1.000  O
  C3       1.0000 0.37870  0.73130  0.62060  Biso   1.000  C
  H6       1.0000 0.52750  0.89750  0.48300  Biso   1.000  H
  H7       1.0000 0.46400  0.89070  0.54360  Biso   1.000  H
  H8       1.0000 0.41470  0.78500  0.63160  Biso   1.000  H
  C4       1.0000 0.34350  0.77520  0.69180  Biso   1.000  C
  H9       1.0000 0.36200  0.84300  0.73000  Biso   1.000  H
  H10      1.0000 0.39740  0.80370  0.67300  Biso   1.000  H
  N3       1.0000 0.10550  0.82140  0.06850  Biso   1.000  N
  O3       1.0000 0.08880  0.79690  0.07320  Biso   1.000  O
  C5       1.0000 0.12130  0.76870  0.12060  Biso   1.000  C
  H11      1.0000 0.97250  0.60250  0.98300  Biso   1.000  H
  H12      1.0000 0.03600  0.60930  0.04360  Biso   1.000  H
  H13      1.0000 0.08530  0.71500  0.13160  Biso   1.000  H
  C6       1.0000 0.15650  0.72480  0.19180  Biso   1.000  C
  H14      1.0000 0.13800  0.65700  0.23000  Biso   1.000  H
  H15      1.0000 0.10260  0.69630  0.17300  Biso   1.000  H
  N4       1.0000 0.60550  0.32140  0.56850  Biso   1.000  N
  O4       1.0000 0.58880  0.29690  0.57320  Biso   1.000  O
  C7       1.0000 0.62130  0.26870  0.62060  Biso   1.000  C
  H16      1.0000 0.47250  0.10250  0.48300  Biso   1.000  H
  H17      1.0000 0.53600  0.10930  0.54360  Biso   1.000  H
  H18      1.0000 0.58530  0.21500  0.63160  Biso   1.000  H
  C8       1.0000 0.65650  0.22480  0.69180  Biso   1.000  C
  H19      1.0000 0.63800  0.15700  0.73000  Biso   1.000  H
  H20      1.0000 0.60260  0.19630  0.67300  Biso   1.000  H
  N5       1.0000 0.82140  0.89450  0.06850  Biso   1.000  N
  O5       1.0000 0.79690  0.91120  0.07320  Biso   1.000  O
  C9       1.0000 0.76870  0.87870  0.12060  Biso   1.000  C
  H21      1.0000 0.60250  0.02750  0.98300  Biso   1.000  H
  H22      1.0000 0.60930  0.96400  0.04360  Biso   1.000  H
  H23      1.0000 0.71500  0.91470  0.13160  Biso   1.000  H
  C10      1.0000 0.72480  0.84350  0.19180  Biso   1.000  C
  H24      1.0000 0.65700  0.86200  0.23000  Biso   1.000  H
  H25      1.0000 0.69630  0.89740  0.17300  Biso   1.000  H
  N6       1.0000 0.32140  0.39450  0.56850  Biso   1.000  N
  O6       1.0000 0.29690  0.41120  0.57320  Biso   1.000  O
  C11      1.0000 0.26870  0.37870  0.62060  Biso   1.000  C
  H26      1.0000 0.10250  0.52750  0.48300  Biso   1.000  H
  H27      1.0000 0.10930  0.46400  0.54360  Biso   1.000  H
  H28      1.0000 0.21500  0.41470  0.63160  Biso   1.000  H
  C12      1.0000 0.22480  0.34350  0.69180  Biso   1.000  C
  H29      1.0000 0.15700  0.36200  0.73000  Biso   1.000  H
  H30      1.0000 0.19630  0.39740  0.67300  Biso   1.000  H
  N7       1.0000 0.17860  0.10550  0.06850  Biso   1.000  N
  O7       1.0000 0.20310  0.08880  0.07320  Biso   1.000  O
  C13      1.0000 0.23130  0.12130  0.12060  Biso   1.000  C
  H31      1.0000 0.39750  0.97250  0.98300  Biso   1.000  H
  H32      1.0000 0.39070  0.03600  0.04360  Biso   1.000  H
  H33      1.0000 0.28500  0.08530  0.13160  Biso   1.000  H
  C14      1.0000 0.27520  0.15650  0.19180  Biso   1.000  C
  H34      1.0000 0.34300  0.13800  0.23000  Biso   1.000  H
  H35      1.0000 0.30370  0.10260  0.17300  Biso   1.000  H
  N8       1.0000 0.67860  0.60550  0.56850  Biso   1.000  N
  O8       1.0000 0.70310  0.58880  0.57320  Biso   1.000  O
  C15      1.0000 0.73130  0.62130  0.62060  Biso   1.000  C
  H36      1.0000 0.89750  0.47250  0.48300  Biso   1.000  H
  H37      1.0000 0.89070  0.53600  0.54360  Biso   1.000  H
  H38      1.0000 0.78500  0.58530  0.63160  Biso   1.000  H
  C16      1.0000 0.77520  0.65650  0.69180  Biso   1.000  C
  H39      1.0000 0.84300  0.63800  0.73000  Biso   1.000  H
  H40      1.0000 0.80370  0.60260  0.67300  Biso   1.000  H
  N9       1.0000 0.10550  0.17860  0.93150  Biso   1.000  N
  O9       1.0000 0.08880  0.20310  0.92680  Biso   1.000  O
  C17      1.0000 0.12130  0.23130  0.87940  Biso   1.000  C
  H41      1.0000 0.97250  0.39750  0.01700  Biso   1.000  H
  H42      1.0000 0.03600  0.39070  0.95640  Biso   1.000  H
  H43      1.0000 0.08530  0.28500  0.86840  Biso   1.000  H
  C18      1.0000 0.15650  0.27520  0.80820  Biso   1.000  C
  H44      1.0000 0.13800  0.34300  0.77000  Biso   1.000  H
  H45      1.0000 0.10260  0.30370  0.82700  Biso   1.000  H
  N10      1.0000 0.60550  0.67860  0.43150  Biso   1.000  N
  O10      1.0000 0.58880  0.70310  0.42680  Biso   1.000  O
  C19      1.0000 0.62130  0.73130  0.37940  Biso   1.000  C
  H46      1.0000 0.47250  0.89750  0.51700  Biso   1.000  H
  H47      1.0000 0.53600  0.89070  0.45640  Biso   1.000  H
  H48      1.0000 0.58530  0.78500  0.36840  Biso   1.000  H
  C20      1.0000 0.65650  0.77520  0.30820  Biso   1.000  C
  H49      1.0000 0.63800  0.84300  0.27000  Biso   1.000  H
  H50      1.0000 0.60260  0.80370  0.32700  Biso   1.000  H
  N11      1.0000 0.89450  0.82140  0.93150  Biso   1.000  N
  O11      1.0000 0.91120  0.79690  0.92680  Biso   1.000  O
  C21      1.0000 0.87870  0.76870  0.87940  Biso   1.000  C
  H51      1.0000 0.02750  0.60250  0.01700  Biso   1.000  H
  H52      1.0000 0.96400  0.60930  0.95640  Biso   1.000  H
  H53      1.0000 0.91470  0.71500  0.86840  Biso   1.000  H
  C22      1.0000 0.84350  0.72480  0.80820  Biso   1.000  C
  H54      1.0000 0.86200  0.65700  0.77000  Biso   1.000  H
  H55      1.0000 0.89740  0.69630  0.82700  Biso   1.000  H
  N12      1.0000 0.39450  0.32140  0.43150  Biso   1.000  N
  O12      1.0000 0.41120  0.29690  0.42680  Biso   1.000  O
  C23      1.0000 0.37870  0.26870  0.37940  Biso   1.000  C
  H56      1.0000 0.52750  0.10250  0.51700  Biso   1.000  H
  H57      1.0000 0.46400  0.10930  0.45640  Biso   1.000  H
  H58      1.0000 0.41470  0.21500  0.36840  Biso   1.000  H
  C24      1.0000 0.34350  0.22480  0.30820  Biso   1.000  C
  H59      1.0000 0.36200  0.15700  0.27000  Biso   1.000  H
  H60      1.0000 0.39740  0.19630  0.32700  Biso   1.000  H
  N13      1.0000 0.17860  0.89450  0.93150  Biso   1.000  N
  O13      1.0000 0.20310  0.91120  0.92680  Biso   1.000  O
  C25      1.0000 0.23130  0.87870  0.87940  Biso   1.000  C
  H61      1.0000 0.39750  0.02750  0.01700  Biso   1.000  H
  H62      1.0000 0.39070  0.96400  0.95640  Biso   1.000  H
  H63      1.0000 0.28500  0.91470  0.86840  Biso   1.000  H
  C26      1.0000 0.27520  0.84350  0.80820  Biso   1.000  C
  H64      1.0000 0.34300  0.86200  0.77000  Biso   1.000  H
  H65      1.0000 0.30370  0.89740  0.82700  Biso   1.000  H
  N14      1.0000 0.67860  0.39450  0.43150  Biso   1.000  N
  O14      1.0000 0.70310  0.41120  0.42680  Biso   1.000  O
  C27      1.0000 0.73130  0.37870  0.37940  Biso   1.000  C
  H66      1.0000 0.89750  0.52750  0.51700  Biso   1.000  H
  H67      1.0000 0.89070  0.46400  0.45640  Biso   1.000  H
  H68      1.0000 0.78500  0.41470  0.36840  Biso   1.000  H
  C28      1.0000 0.77520  0.34350  0.30820  Biso   1.000  C
  H69      1.0000 0.84300  0.36200  0.27000  Biso   1.000  H
  H70      1.0000 0.80370  0.39740  0.32700  Biso   1.000  H
  N15      1.0000 0.82140  0.10550  0.93150  Biso   1.000  N
  O15      1.0000 0.79690  0.08880  0.92680  Biso   1.000  O
  C29      1.0000 0.76870  0.12130  0.87940  Biso   1.000  C
  H71      1.0000 0.60250  0.97250  0.01700  Biso   1.000  H
  H72      1.0000 0.60930  0.03600  0.95640  Biso   1.000  H
  H73      1.0000 0.71500  0.08530  0.86840  Biso   1.000  H
  C30      1.0000 0.72480  0.15650  0.80820  Biso   1.000  C
  H74      1.0000 0.65700  0.13800  0.77000  Biso   1.000  H
  H75      1.0000 0.69630  0.10260  0.82700  Biso   1.000  H
  N16      1.0000 0.32140  0.60550  0.43150  Biso   1.000  N
  O16      1.0000 0.29690  0.58880  0.42680  Biso   1.000  O
  C31      1.0000 0.26870  0.62130  0.37940  Biso   1.000  C
  H76      1.0000 0.10250  0.47250  0.51700  Biso   1.000  H
  H77      1.0000 0.10930  0.53600  0.45640  Biso   1.000  H
  H78      1.0000 0.21500  0.58530  0.36840  Biso   1.000  H
  C32      1.0000 0.22480  0.65650  0.30820  Biso   1.000  C
  H79      1.0000 0.15700  0.63800  0.27000  Biso   1.000  H
  H80      1.0000 0.19630  0.60260  0.32700  Biso   1.000  H
  N17      1.0000 0.10550  0.82140  0.93150  Biso   1.000  N
  O17      1.0000 0.08880  0.79690  0.92680  Biso   1.000  O
  C33      1.0000 0.12130  0.76870  0.87940  Biso   1.000  C
  H81      1.0000 0.97250  0.60250  0.01700  Biso   1.000  H
  H82      1.0000 0.03600  0.60930  0.95640  Biso   1.000  H
  H83      1.0000 0.08530  0.71500  0.86840  Biso   1.000  H
  C34      1.0000 0.15650  0.72480  0.80820  Biso   1.000  C
  H84      1.0000 0.13800  0.65700  0.77000  Biso   1.000  H
  H85      1.0000 0.10260  0.69630  0.82700  Biso   1.000  H
  N18      1.0000 0.60550  0.32140  0.43150  Biso   1.000  N
  O18      1.0000 0.58880  0.29690  0.42680  Biso   1.000  O
  C35      1.0000 0.62130  0.26870  0.37940  Biso   1.000  C
  H86      1.0000 0.47250  0.10250  0.51700  Biso   1.000  H
  H87      1.0000 0.53600  0.10930  0.45640  Biso   1.000  H
  H88      1.0000 0.58530  0.21500  0.36840  Biso   1.000  H
  C36      1.0000 0.65650  0.22480  0.30820  Biso   1.000  C
  H89      1.0000 0.63800  0.15700  0.27000  Biso   1.000  H
  H90      1.0000 0.60260  0.19630  0.32700  Biso   1.000  H
  N19      1.0000 0.89450  0.17860  0.93150  Biso   1.000  N
  O19      1.0000 0.91120  0.20310  0.92680  Biso   1.000  O
  C37      1.0000 0.87870  0.23130  0.87940  Biso   1.000  C
  H91      1.0000 0.02750  0.39750  0.01700  Biso   1.000  H
  H92      1.0000 0.96400  0.39070  0.95640  Biso   1.000  H
  H93      1.0000 0.91470  0.28500  0.86840  Biso   1.000  H
  C38      1.0000 0.84350  0.27520  0.80820  Biso   1.000  C
  H94      1.0000 0.86200  0.34300  0.77000  Biso   1.000  H
  H95      1.0000 0.89740  0.30370  0.82700  Biso   1.000  H
  N20      1.0000 0.39450  0.67860  0.43150  Biso   1.000  N
  O20      1.0000 0.41120  0.70310  0.42680  Biso   1.000  O
  C39      1.0000 0.37870  0.73130  0.37940  Biso   1.000  C
  H96      1.0000 0.52750  0.89750  0.51700  Biso   1.000  H
  H97      1.0000 0.46400  0.89070  0.45640  Biso   1.000  H
  H98      1.0000 0.41470  0.78500  0.36840  Biso   1.000  H
  C40      1.0000 0.34350  0.77520  0.30820  Biso   1.000  C
  H99      1.0000 0.36200  0.84300  0.27000  Biso   1.000  H
  H100     1.0000 0.39740  0.80370  0.32700  Biso   1.000  H
  N21      1.0000 0.17860  0.10550  0.93150  Biso   1.000  N
  O21      1.0000 0.20310  0.08880  0.92680  Biso   1.000  O
  C41      1.0000 0.23130  0.12130  0.87940  Biso   1.000  C
  H101     1.0000 0.39750  0.97250  0.01700  Biso   1.000  H
  H102     1.0000 0.39070  0.03600  0.95640  Biso   1.000  H
  H103     1.0000 0.28500  0.08530  0.86840  Biso   1.000  H
  C42      1.0000 0.27520  0.15650  0.80820  Biso   1.000  C
  H104     1.0000 0.34300  0.13800  0.77000  Biso   1.000  H
  H105     1.0000 0.30370  0.10260  0.82700  Biso   1.000  H
  N22      1.0000 0.67860  0.60550  0.43150  Biso   1.000  N
  O22      1.0000 0.70310  0.58880  0.42680  Biso   1.000  O
  C43      1.0000 0.73130  0.62130  0.37940  Biso   1.000  C
  H106     1.0000 0.89750  0.47250  0.51700  Biso   1.000  H
  H107     1.0000 0.89070  0.53600  0.45640  Biso   1.000  H
  H108     1.0000 0.78500  0.58530  0.36840  Biso   1.000  H
  C44      1.0000 0.77520  0.65650  0.30820  Biso   1.000  C
  H109     1.0000 0.84300  0.63800  0.27000  Biso   1.000  H
  H110     1.0000 0.80370  0.60260  0.32700  Biso   1.000  H
  N23      1.0000 0.82140  0.89450  0.93150  Biso   1.000  N
  O23      1.0000 0.79690  0.91120  0.92680  Biso   1.000  O
  C45      1.0000 0.76870  0.87870  0.87940  Biso   1.000  C
  H111     1.0000 0.60250  0.02750  0.01700  Biso   1.000  H
  H112     1.0000 0.60930  0.96400  0.95640  Biso   1.000  H
  H113     1.0000 0.71500  0.91470  0.86840  Biso   1.000  H
  C46      1.0000 0.72480  0.84350  0.80820  Biso   1.000  C
  H114     1.0000 0.65700  0.86200  0.77000  Biso   1.000  H
  H115     1.0000 0.69630  0.89740  0.82700  Biso   1.000  H
  N24      1.0000 0.32140  0.39450  0.43150  Biso   1.000  N
  O24      1.0000 0.29690  0.41120  0.42680  Biso   1.000  O
  C47      1.0000 0.26870  0.37870  0.37940  Biso   1.000  C
  H116     1.0000 0.10250  0.52750  0.51700  Biso   1.000  H
  H117     1.0000 0.10930  0.46400  0.45640  Biso   1.000  H
  H118     1.0000 0.21500  0.41470  0.36840  Biso   1.000  H
  C48      1.0000 0.22480  0.34350  0.30820  Biso   1.000  C
  H119     1.0000 0.15700  0.36200  0.27000  Biso   1.000  H
  H120     1.0000 0.19630  0.39740  0.32700  Biso   1.000  H
  N25      1.0000 0.89450  0.82140  0.06850  Biso   1.000  N
  O25      1.0000 0.91120  0.79690  0.07320  Biso   1.000  O
  C49      1.0000 0.87870  0.76870  0.12060  Biso   1.000  C
  H121     1.0000 0.02750  0.60250  0.98300  Biso   1.000  H
  H122     1.0000 0.96400  0.60930  0.04360  Biso   1.000  H
  H123     1.0000 0.91470  0.71500  0.13160  Biso   1.000  H
  C50      1.0000 0.84350  0.72480  0.19180  Biso   1.000  C
  H124     1.0000 0.86200  0.65700  0.23000  Biso   1.000  H
  H125     1.0000 0.89740  0.69630  0.17300  Biso   1.000  H
  N26      1.0000 0.39450  0.32140  0.56850  Biso   1.000  N
  O26      1.0000 0.41120  0.29690  0.57320  Biso   1.000  O
  C51      1.0000 0.37870  0.26870  0.62060  Biso   1.000  C
  H126     1.0000 0.52750  0.10250  0.48300  Biso   1.000  H
  H127     1.0000 0.46400  0.10930  0.54360  Biso   1.000  H
  H128     1.0000 0.41470  0.21500  0.63160  Biso   1.000  H
  C52      1.0000 0.34350  0.22480  0.69180  Biso   1.000  C
  H129     1.0000 0.36200  0.15700  0.73000  Biso   1.000  H
  H130     1.0000 0.39740  0.19630  0.67300  Biso   1.000  H
  N27      1.0000 0.10550  0.17860  0.06850  Biso   1.000  N
  O27      1.0000 0.08880  0.20310  0.07320  Biso   1.000  O
  C53      1.0000 0.12130  0.23130  0.12060  Biso   1.000  C
  H131     1.0000 0.97250  0.39750  0.98300  Biso   1.000  H
  H132     1.0000 0.03600  0.39070  0.04360  Biso   1.000  H
  H133     1.0000 0.08530  0.28500  0.13160  Biso   1.000  H
  C54      1.0000 0.15650  0.27520  0.19180  Biso   1.000  C
  H134     1.0000 0.13800  0.34300  0.23000  Biso   1.000  H
  H135     1.0000 0.10260  0.30370  0.17300  Biso   1.000  H
  N28      1.0000 0.60550  0.67860  0.56850  Biso   1.000  N
  O28      1.0000 0.58880  0.70310  0.57320  Biso   1.000  O
  C55      1.0000 0.62130  0.73130  0.62060  Biso   1.000  C
  H136     1.0000 0.47250  0.89750  0.48300  Biso   1.000  H
  H137     1.0000 0.53600  0.89070  0.54360  Biso   1.000  H
  H138     1.0000 0.58530  0.78500  0.63160  Biso   1.000  H
  C56      1.0000 0.65650  0.77520  0.69180  Biso   1.000  C
  H139     1.0000 0.63800  0.84300  0.73000  Biso   1.000  H
  H140     1.0000 0.60260  0.80370  0.67300  Biso   1.000  H
  N29      1.0000 0.82140  0.10550  0.06850  Biso   1.000  N
  O29      1.0000 0.79690  0.08880  0.07320  Biso   1.000  O
  C57      1.0000 0.76870  0.12130  0.12060  Biso   1.000  C
  H141     1.0000 0.60250  0.97250  0.98300  Biso   1.000  H
  H142     1.0000 0.60930  0.03600  0.04360  Biso   1.000  H
  H143     1.0000 0.71500  0.08530  0.13160  Biso   1.000  H
  C58      1.0000 0.72480  0.15650  0.19180  Biso   1.000  C
  H144     1.0000 0.65700  0.13800  0.23000  Biso   1.000  H
  H145     1.0000 0.69630  0.10260  0.17300  Biso   1.000  H
  N30      1.0000 0.32140  0.60550  0.56850  Biso   1.000  N
  O30      1.0000 0.29690  0.58880  0.57320  Biso   1.000  O
  C59      1.0000 0.26870  0.62130  0.62060  Biso   1.000  C
  H146     1.0000 0.10250  0.47250  0.48300  Biso   1.000  H
  H147     1.0000 0.10930  0.53600  0.54360  Biso   1.000  H
  H148     1.0000 0.21500  0.58530  0.63160  Biso   1.000  H
  C60      1.0000 0.22480  0.65650  0.69180  Biso   1.000  C
  H149     1.0000 0.15700  0.63800  0.73000  Biso   1.000  H
  H150     1.0000 0.19630  0.60260  0.67300  Biso   1.000  H
  N31      1.0000 0.17860  0.89450  0.06850  Biso   1.000  N
  O31      1.0000 0.20310  0.91120  0.07320  Biso   1.000  O
  C61      1.0000 0.23130  0.87870  0.12060  Biso   1.000  C
  H151     1.0000 0.39750  0.02750  0.98300  Biso   1.000  H
  H152     1.0000 0.39070  0.96400  0.04360  Biso   1.000  H
  H153     1.0000 0.28500  0.91470  0.13160  Biso   1.000  H
  C62      1.0000 0.27520  0.84350  0.19180  Biso   1.000  C
  H154     1.0000 0.34300  0.86200  0.23000  Biso   1.000  H
  H155     1.0000 0.30370  0.89740  0.17300  Biso   1.000  H
  N32      1.0000 0.67860  0.39450  0.56850  Biso   1.000  N
  O32      1.0000 0.70310  0.41120  0.57320  Biso   1.000  O
  C63      1.0000 0.73130  0.37870  0.62060  Biso   1.000  C
  H156     1.0000 0.89750  0.52750  0.48300  Biso   1.000  H
  H157     1.0000 0.89070  0.46400  0.54360  Biso   1.000  H
  H158     1.0000 0.78500  0.41470  0.63160  Biso   1.000  H
  C64      1.0000 0.77520  0.34350  0.69180  Biso   1.000  C
  H159     1.0000 0.84300  0.36200  0.73000  Biso   1.000  H
  H160     1.0000 0.80370  0.39740  0.67300  Biso   1.000  H
  Cu1      1.0000 0.00000  0.18409  0.00000  Biso   1.000  Cu
  Cu2      1.0000 0.50000  0.68409  0.50000  Biso   1.000  Cu
  Cu3      1.0000 0.00000  0.81591  0.00000  Biso   1.000  Cu
  Cu4      1.0000 0.50000  0.31591  0.50000  Biso   1.000  Cu
  Cu5      1.0000 0.81591  0.00000  0.00000  Biso   1.000  Cu
  Cu6      1.0000 0.31591  0.50000  0.50000  Biso   1.000  Cu
  Cu7      1.0000 0.18409  0.00000  0.00000  Biso   1.000  Cu
  Cu8      1.0000 0.68409  0.50000  0.50000  Biso   1.000  Cu
  Cl1      1.0000 0.00000  0.00000  0.00000  Biso   1.000  Cl
  Cl2      1.0000 0.50000  0.50000  0.50000  Biso   1.000  Cl
  O33      1.0000 0.97560  0.35090  0.00000  Biso   1.000  O
  O34      1.0000 0.47560  0.85090  0.50000  Biso   1.000  O
  O35      1.0000 0.02440  0.64910  0.00000  Biso   1.000  O
  O36      1.0000 0.52440  0.14910  0.50000  Biso   1.000  O
  O37      1.0000 0.64910  0.97560  0.00000  Biso   1.000  O
  O38      1.0000 0.14910  0.47560  0.50000  Biso   1.000  O
  O39      1.0000 0.35090  0.02440  0.00000  Biso   1.000  O
  O40      1.0000 0.85090  0.52440  0.50000  Biso   1.000  O
  O41      1.0000 0.02440  0.35090  0.00000  Biso   1.000  O
  O42      1.0000 0.52440  0.85090  0.50000  Biso   1.000  O
  O43      1.0000 0.97560  0.64910  0.00000  Biso   1.000  O
  O44      1.0000 0.47560  0.14910  0.50000  Biso   1.000  O
  O45      1.0000 0.35090  0.97560  0.00000  Biso   1.000  O
  O46      1.0000 0.85090  0.47560  0.50000  Biso   1.000  O
  O47      1.0000 0.64910  0.02440  0.00000  Biso   1.000  O
  O48      1.0000 0.14910  0.52440  0.50000  Biso   1.000  O
  C65      1.0000 0.84020  0.15980  0.09670  Biso   1.000  C
  C66      1.0000 0.80170  0.19830  0.15810  Biso   1.000  C
  C67      1.0000 0.76530  0.23470  0.21690  Biso   1.000  C
  C68      1.0000 0.34020  0.65980  0.59670  Biso   1.000  C
  C69      1.0000 0.30170  0.69830  0.65810  Biso   1.000  C
  C70      1.0000 0.26530  0.73470  0.71690  Biso   1.000  C
  C71      1.0000 0.15980  0.84020  0.09670  Biso   1.000  C
  C72      1.0000 0.19830  0.80170  0.15810  Biso   1.000  C
  C73      1.0000 0.23470  0.76530  0.21690  Biso   1.000  C
  C74      1.0000 0.65980  0.34020  0.59670  Biso   1.000  C
  C75      1.0000 0.69830  0.30170  0.65810  Biso   1.000  C
  C76      1.0000 0.73470  0.26530  0.71690  Biso   1.000  C
  C77      1.0000 0.84020  0.84020  0.09670  Biso   1.000  C
  C78      1.0000 0.80170  0.80170  0.15810  Biso   1.000  C
  C79      1.0000 0.76530  0.76530  0.21690  Biso   1.000  C
  C80      1.0000 0.34020  0.34020  0.59670  Biso   1.000  C
  C81      1.0000 0.30170  0.30170  0.65810  Biso   1.000  C
  C82      1.0000 0.26530  0.26530  0.71690  Biso   1.000  C
  C83      1.0000 0.15980  0.15980  0.09670  Biso   1.000  C
  C84      1.0000 0.19830  0.19830  0.15810  Biso   1.000  C
  C85      1.0000 0.23470  0.23470  0.21690  Biso   1.000  C
  C86      1.0000 0.65980  0.65980  0.59670  Biso   1.000  C
  C87      1.0000 0.69830  0.69830  0.65810  Biso   1.000  C
  C88      1.0000 0.73470  0.73470  0.71690  Biso   1.000  C
  C89      1.0000 0.15980  0.15980  0.90330  Biso   1.000  C
  C90      1.0000 0.19830  0.19830  0.84190  Biso   1.000  C
  C91      1.0000 0.23470  0.23470  0.78310  Biso   1.000  C
  C92      1.0000 0.65980  0.65980  0.40330  Biso   1.000  C
  C93      1.0000 0.69830  0.69830  0.34190  Biso   1.000  C
  C94      1.0000 0.73470  0.73470  0.28310  Biso   1.000  C
  C95      1.0000 0.84020  0.84020  0.90330  Biso   1.000  C
  C96      1.0000 0.80170  0.80170  0.84190  Biso   1.000  C
  C97      1.0000 0.76530  0.76530  0.78310  Biso   1.000  C
  C98      1.0000 0.34020  0.34020  0.40330  Biso   1.000  C
  C99      1.0000 0.30170  0.30170  0.34190  Biso   1.000  C
  C100     1.0000 0.26530  0.26530  0.28310  Biso   1.000  C
  C101     1.0000 0.15980  0.84020  0.90330  Biso   1.000  C
  C102     1.0000 0.19830  0.80170  0.84190  Biso   1.000  C
  C103     1.0000 0.23470  0.76530  0.78310  Biso   1.000  C
  C104     1.0000 0.65980  0.34020  0.40330  Biso   1.000  C
  C105     1.0000 0.69830  0.30170  0.34190  Biso   1.000  C
  C106     1.0000 0.73470  0.26530  0.28310  Biso   1.000  C
  C107     1.0000 0.84020  0.15980  0.90330  Biso   1.000  C
  C108     1.0000 0.80170  0.19830  0.84190  Biso   1.000  C
  C109     1.0000 0.76530  0.23470  0.78310  Biso   1.000  C
  C110     1.0000 0.34020  0.65980  0.40330  Biso   1.000  C
  C111     1.0000 0.30170  0.69830  0.34190  Biso   1.000  C
  C112     1.0000 0.26530  0.73470  0.28310  Biso   1.000  C
  C113     1.0000 0.81050  0.31050  0.25000  Biso   1.000  C
  C114     1.0000 0.18950  0.68950  0.25000  Biso   1.000  C
  C115     1.0000 0.68950  0.81050  0.25000  Biso   1.000  C
  C116     1.0000 0.31050  0.18950  0.25000  Biso   1.000  C
  C117     1.0000 0.18950  0.31050  0.75000  Biso   1.000  C
  C118     1.0000 0.81050  0.68950  0.75000  Biso   1.000  C
  C119     1.0000 0.31050  0.81050  0.75000  Biso   1.000  C
  C120     1.0000 0.68950  0.18950  0.75000  Biso   1.000  C
  C121     1.0000 0.18950  0.68950  0.75000  Biso   1.000  C
  C122     1.0000 0.81050  0.31050  0.75000  Biso   1.000  C
  C123     1.0000 0.31050  0.18950  0.75000  Biso   1.000  C
  C124     1.0000 0.68950  0.81050  0.75000  Biso   1.000  C
  C125     1.0000 0.18950  0.31050  0.25000  Biso   1.000  C
  C126     1.0000 0.81050  0.68950  0.25000  Biso   1.000  C
  C127     1.0000 0.68950  0.18950  0.25000  Biso   1.000  C
  C128     1.0000 0.31050  0.81050  0.25000  Biso   1.000  C
