data_image0
_cell_length_a       18.4365
_cell_length_b       16.7553
_cell_length_c       20.2441
_cell_angle_alpha    90
_cell_angle_beta     114.322
_cell_angle_gamma    90

_symmetry_space_group_name_H-M    "P 1"
_symmetry_int_tables_number       1

loop_
  _symmetry_equiv_pos_as_xyz
  'x, y, z'

loop_
  _atom_site_label
  _atom_site_occupancy
  _atom_site_fract_x
  _atom_site_fract_y
  _atom_site_fract_z
  _atom_site_thermal_displace_type
  _atom_site_B_iso_or_equiv
  _atom_site_type_symbol
  Ag1      1.0000 0.01880  0.10457  0.51264  Biso   1.000  Ag
  Ag2      1.0000 0.17649  0.14670  0.53683  Biso   1.000  Ag
  Ag3      1.0000 0.04207  0.26572  0.49238  Biso   1.000  Ag
  Ag4      1.0000 0.13893  0.25378  0.40595  Biso   1.000  Ag
  Ag5      1.0000 0.02440  0.25890  0.24700  Biso   1.000  Ag
  C1       1.0000 0.06710  0.16230  0.43750  Biso   1.000  C
  C2       1.0000 0.04880  0.13440  0.37800  Biso   1.000  C
  C3       1.0000 0.02310  0.08920  0.31150  Biso   1.000  C
  C4       1.0000 0.02490  0.00660  0.31410  Biso   1.000  C
  H1       1.0000 0.04250  0.97980  0.35820  Biso   1.000  H
  O1       1.0000 0.29020  0.15050  0.49860  Biso   1.000  O
  O2       1.0000 0.38880  0.11590  0.46840  Biso   1.000  O
  C5       1.0000 0.32210  0.10950  0.46740  Biso   1.000  C
  C6       1.0000 0.26850  0.04630  0.41850  Biso   1.000  C
  F1       1.0000 0.30850  0.99650  0.39420  Biso   1.000  F
  F2       1.0000 0.21150  0.07780  0.36050  Biso   1.000  F
  F3       1.0000 0.23450  0.00230  0.45210  Biso   1.000  F
  O3       1.0000 0.95240  0.14760  0.57610  Biso   1.000  O
  O4       1.0000 0.96640  0.27670  0.55940  Biso   1.000  O
  C7       1.0000 0.94010  0.21820  0.57980  Biso   1.000  C
  C8       1.0000 0.88580  0.23820  0.61860  Biso   1.000  C
  F4       1.0000 0.89600  0.19200  0.67170  Biso   1.000  F
  F5       1.0000 0.81300  0.23400  0.57530  Biso   1.000  F
  F6       1.0000 0.89600  0.30850  0.64600  Biso   1.000  F
  O5       1.0000 0.08320  0.98760  0.56710  Biso   1.000  O
  O6       1.0000 0.20900  0.02420  0.59800  Biso   1.000  O
  C9       1.0000 0.15520  0.97810  0.59640  Biso   1.000  C
  C10      1.0000 0.18350  0.90000  0.64000  Biso   1.000  C
  F7       1.0000 0.14320  0.87470  0.67040  Biso   1.000  F
  F8       1.0000 0.25260  0.90260  0.68750  Biso   1.000  F
  F9       1.0000 0.18700  0.84450  0.59920  Biso   1.000  F
  O7       1.0000 0.35980  0.20350  0.75270  Biso   1.000  O
  O8       1.0000 0.27330  0.20850  0.63850  Biso   1.000  O
  C11      1.0000 0.29360  0.19980  0.70450  Biso   1.000  C
  C12      1.0000 0.22500  0.18460  0.72790  Biso   1.000  C
  F10      1.0000 0.16020  0.16510  0.67720  Biso   1.000  F
  F11      1.0000 0.21180  0.24590  0.75800  Biso   1.000  F
  F12      1.0000 0.24290  0.12700  0.77400  Biso   1.000  F
  O9       1.0000 0.03720  0.36720  0.34060  Biso   1.000  O
  C13      1.0000 0.22650  0.46170  0.57670  Biso   1.000  C
  F13      1.0000 0.24800  0.44900  0.64130  Biso   1.000  F
  F14      1.0000 0.18970  0.52460  0.56700  Biso   1.000  F
  F15      1.0000 0.28780  0.47750  0.57000  Biso   1.000  F
  F16      1.0000 0.85000  0.30410  0.59500  Biso   1.000  F
  F17      1.0000 0.93070  0.24500  0.68590  Biso   1.000  F
  F18      1.0000 0.83340  0.18380  0.60900  Biso   1.000  F
  F19      1.0000 0.14010  0.84070  0.60590  Biso   1.000  F
  F20      1.0000 0.25690  0.88280  0.65700  Biso   1.000  F
  F21      1.0000 0.17500  0.91020  0.70090  Biso   1.000  F
  F22      1.0000 0.25820  0.29770  0.20860  Biso   1.000  F
  F23      1.0000 0.29760  0.38530  0.27930  Biso   1.000  F
  F24      1.0000 0.33490  0.27400  0.30740  Biso   1.000  F
  Ag6      1.0000 0.51880  0.60457  0.51264  Biso   1.000  Ag
  Ag7      1.0000 0.67649  0.64670  0.53683  Biso   1.000  Ag
  Ag8      1.0000 0.54207  0.76572  0.49238  Biso   1.000  Ag
  Ag9      1.0000 0.63893  0.75378  0.40595  Biso   1.000  Ag
  Ag10     1.0000 0.52440  0.75890  0.24700  Biso   1.000  Ag
  C14      1.0000 0.56710  0.66230  0.43750  Biso   1.000  C
  C15      1.0000 0.54880  0.63440  0.37800  Biso   1.000  C
  C16      1.0000 0.52310  0.58920  0.31150  Biso   1.000  C
  C17      1.0000 0.52490  0.50660  0.31410  Biso   1.000  C
  H2       1.0000 0.54250  0.47980  0.35820  Biso   1.000  H
  O10      1.0000 0.79020  0.65050  0.49860  Biso   1.000  O
  O11      1.0000 0.88880  0.61590  0.46840  Biso   1.000  O
  C18      1.0000 0.82210  0.60950  0.46740  Biso   1.000  C
  C19      1.0000 0.76850  0.54630  0.41850  Biso   1.000  C
  F25      1.0000 0.80850  0.49650  0.39420  Biso   1.000  F
  F26      1.0000 0.71150  0.57780  0.36050  Biso   1.000  F
  F27      1.0000 0.73450  0.50230  0.45210  Biso   1.000  F
  O12      1.0000 0.45240  0.64760  0.57610  Biso   1.000  O
  O13      1.0000 0.46640  0.77670  0.55940  Biso   1.000  O
  C20      1.0000 0.44010  0.71820  0.57980  Biso   1.000  C
  C21      1.0000 0.38580  0.73820  0.61860  Biso   1.000  C
  F28      1.0000 0.39600  0.69200  0.67170  Biso   1.000  F
  F29      1.0000 0.31300  0.73400  0.57530  Biso   1.000  F
  F30      1.0000 0.39600  0.80850  0.64600  Biso   1.000  F
  O14      1.0000 0.58320  0.48760  0.56710  Biso   1.000  O
  O15      1.0000 0.70900  0.52420  0.59800  Biso   1.000  O
  C22      1.0000 0.65520  0.47810  0.59640  Biso   1.000  C
  C23      1.0000 0.68350  0.40000  0.64000  Biso   1.000  C
  F31      1.0000 0.64320  0.37470  0.67040  Biso   1.000  F
  F32      1.0000 0.75260  0.40260  0.68750  Biso   1.000  F
  F33      1.0000 0.68700  0.34450  0.59920  Biso   1.000  F
  O16      1.0000 0.85980  0.70350  0.75270  Biso   1.000  O
  O17      1.0000 0.77330  0.70850  0.63850  Biso   1.000  O
  C24      1.0000 0.79360  0.69980  0.70450  Biso   1.000  C
  C25      1.0000 0.72500  0.68460  0.72790  Biso   1.000  C
  F34      1.0000 0.66020  0.66510  0.67720  Biso   1.000  F
  F35      1.0000 0.71180  0.74590  0.75800  Biso   1.000  F
  F36      1.0000 0.74290  0.62700  0.77400  Biso   1.000  F
  O18      1.0000 0.53720  0.86720  0.34060  Biso   1.000  O
  C26      1.0000 0.72650  0.96170  0.57670  Biso   1.000  C
  F37      1.0000 0.74800  0.94900  0.64130  Biso   1.000  F
  F38      1.0000 0.68970  0.02460  0.56700  Biso   1.000  F
  F39      1.0000 0.78780  0.97750  0.57000  Biso   1.000  F
  F40      1.0000 0.35000  0.80410  0.59500  Biso   1.000  F
  F41      1.0000 0.43070  0.74500  0.68590  Biso   1.000  F
  F42      1.0000 0.33340  0.68380  0.60900  Biso   1.000  F
  F43      1.0000 0.64010  0.34070  0.60590  Biso   1.000  F
  F44      1.0000 0.75690  0.38280  0.65700  Biso   1.000  F
  F45      1.0000 0.67500  0.41020  0.70090  Biso   1.000  F
  F46      1.0000 0.75820  0.79770  0.20860  Biso   1.000  F
  F47      1.0000 0.79760  0.88530  0.27930  Biso   1.000  F
  F48      1.0000 0.83490  0.77400  0.30740  Biso   1.000  F
  Ag11     1.0000 0.98120  0.10457  0.98736  Biso   1.000  Ag
  Ag12     1.0000 0.82351  0.14670  0.96317  Biso   1.000  Ag
  Ag13     1.0000 0.95793  0.26572  0.00762  Biso   1.000  Ag
  Ag14     1.0000 0.86107  0.25378  0.09405  Biso   1.000  Ag
  Ag15     1.0000 0.97560  0.25890  0.25300  Biso   1.000  Ag
  C27      1.0000 0.93290  0.16230  0.06250  Biso   1.000  C
  C28      1.0000 0.95120  0.13440  0.12200  Biso   1.000  C
  C29      1.0000 0.97690  0.08920  0.18850  Biso   1.000  C
  C30      1.0000 0.97510  0.00660  0.18590  Biso   1.000  C
  H3       1.0000 0.95750  0.97980  0.14180  Biso   1.000  H
  O19      1.0000 0.70980  0.15050  0.00140  Biso   1.000  O
  O20      1.0000 0.61120  0.11590  0.03160  Biso   1.000  O
  C31      1.0000 0.67790  0.10950  0.03260  Biso   1.000  C
  C32      1.0000 0.73150  0.04630  0.08150  Biso   1.000  C
  F49      1.0000 0.69150  0.99650  0.10580  Biso   1.000  F
  F50      1.0000 0.78850  0.07780  0.13950  Biso   1.000  F
  F51      1.0000 0.76550  0.00230  0.04790  Biso   1.000  F
  O21      1.0000 0.04760  0.14760  0.92390  Biso   1.000  O
  O22      1.0000 0.03360  0.27670  0.94060  Biso   1.000  O
  C33      1.0000 0.05990  0.21820  0.92020  Biso   1.000  C
  C34      1.0000 0.11420  0.23820  0.88140  Biso   1.000  C
  F52      1.0000 0.10400  0.19200  0.82830  Biso   1.000  F
  F53      1.0000 0.18700  0.23400  0.92470  Biso   1.000  F
  F54      1.0000 0.10400  0.30850  0.85400  Biso   1.000  F
  O23      1.0000 0.91680  0.98760  0.93290  Biso   1.000  O
  O24      1.0000 0.79100  0.02420  0.90200  Biso   1.000  O
  C35      1.0000 0.84480  0.97810  0.90360  Biso   1.000  C
  C36      1.0000 0.81650  0.90000  0.86000  Biso   1.000  C
  F55      1.0000 0.85680  0.87470  0.82960  Biso   1.000  F
  F56      1.0000 0.74740  0.90260  0.81250  Biso   1.000  F
  F57      1.0000 0.81300  0.84450  0.90080  Biso   1.000  F
  O25      1.0000 0.64020  0.20350  0.74730  Biso   1.000  O
  O26      1.0000 0.72670  0.20850  0.86150  Biso   1.000  O
  C37      1.0000 0.70640  0.19980  0.79550  Biso   1.000  C
  C38      1.0000 0.77500  0.18460  0.77210  Biso   1.000  C
  F58      1.0000 0.83980  0.16510  0.82280  Biso   1.000  F
  F59      1.0000 0.78820  0.24590  0.74200  Biso   1.000  F
  F60      1.0000 0.75710  0.12700  0.72600  Biso   1.000  F
  O27      1.0000 0.96280  0.36720  0.15940  Biso   1.000  O
  C39      1.0000 0.77350  0.46170  0.92330  Biso   1.000  C
  F61      1.0000 0.75200  0.44900  0.85870  Biso   1.000  F
  F62      1.0000 0.81030  0.52460  0.93300  Biso   1.000  F
  F63      1.0000 0.71220  0.47750  0.93000  Biso   1.000  F
  F64      1.0000 0.15000  0.30410  0.90500  Biso   1.000  F
  F65      1.0000 0.06930  0.24500  0.81410  Biso   1.000  F
  F66      1.0000 0.16660  0.18380  0.89100  Biso   1.000  F
  F67      1.0000 0.85990  0.84070  0.89410  Biso   1.000  F
  F68      1.0000 0.74310  0.88280  0.84300  Biso   1.000  F
  F69      1.0000 0.82500  0.91020  0.79910  Biso   1.000  F
  F70      1.0000 0.74180  0.29770  0.29140  Biso   1.000  F
  F71      1.0000 0.70240  0.38530  0.22070  Biso   1.000  F
  F72      1.0000 0.66510  0.27400  0.19260  Biso   1.000  F
  Ag16     1.0000 0.48120  0.60457  0.98736  Biso   1.000  Ag
  Ag17     1.0000 0.32351  0.64670  0.96317  Biso   1.000  Ag
  Ag18     1.0000 0.45793  0.76572  0.00762  Biso   1.000  Ag
  Ag19     1.0000 0.36107  0.75378  0.09405  Biso   1.000  Ag
  Ag20     1.0000 0.47560  0.75890  0.25300  Biso   1.000  Ag
  C40      1.0000 0.43290  0.66230  0.06250  Biso   1.000  C
  C41      1.0000 0.45120  0.63440  0.12200  Biso   1.000  C
  C42      1.0000 0.47690  0.58920  0.18850  Biso   1.000  C
  C43      1.0000 0.47510  0.50660  0.18590  Biso   1.000  C
  H4       1.0000 0.45750  0.47980  0.14180  Biso   1.000  H
  O28      1.0000 0.20980  0.65050  0.00140  Biso   1.000  O
  O29      1.0000 0.11120  0.61590  0.03160  Biso   1.000  O
  C44      1.0000 0.17790  0.60950  0.03260  Biso   1.000  C
  C45      1.0000 0.23150  0.54630  0.08150  Biso   1.000  C
  F73      1.0000 0.19150  0.49650  0.10580  Biso   1.000  F
  F74      1.0000 0.28850  0.57780  0.13950  Biso   1.000  F
  F75      1.0000 0.26550  0.50230  0.04790  Biso   1.000  F
  O30      1.0000 0.54760  0.64760  0.92390  Biso   1.000  O
  O31      1.0000 0.53360  0.77670  0.94060  Biso   1.000  O
  C46      1.0000 0.55990  0.71820  0.92020  Biso   1.000  C
  C47      1.0000 0.61420  0.73820  0.88140  Biso   1.000  C
  F76      1.0000 0.60400  0.69200  0.82830  Biso   1.000  F
  F77      1.0000 0.68700  0.73400  0.92470  Biso   1.000  F
  F78      1.0000 0.60400  0.80850  0.85400  Biso   1.000  F
  O32      1.0000 0.41680  0.48760  0.93290  Biso   1.000  O
  O33      1.0000 0.29100  0.52420  0.90200  Biso   1.000  O
  C48      1.0000 0.34480  0.47810  0.90360  Biso   1.000  C
  C49      1.0000 0.31650  0.40000  0.86000  Biso   1.000  C
  F79      1.0000 0.35680  0.37470  0.82960  Biso   1.000  F
  F80      1.0000 0.24740  0.40260  0.81250  Biso   1.000  F
  F81      1.0000 0.31300  0.34450  0.90080  Biso   1.000  F
  O34      1.0000 0.14020  0.70350  0.74730  Biso   1.000  O
  O35      1.0000 0.22670  0.70850  0.86150  Biso   1.000  O
  C50      1.0000 0.20640  0.69980  0.79550  Biso   1.000  C
  C51      1.0000 0.27500  0.68460  0.77210  Biso   1.000  C
  F82      1.0000 0.33980  0.66510  0.82280  Biso   1.000  F
  F83      1.0000 0.28820  0.74590  0.74200  Biso   1.000  F
  F84      1.0000 0.25710  0.62700  0.72600  Biso   1.000  F
  O36      1.0000 0.46280  0.86720  0.15940  Biso   1.000  O
  C52      1.0000 0.27350  0.96170  0.92330  Biso   1.000  C
  F85      1.0000 0.25200  0.94900  0.85870  Biso   1.000  F
  F86      1.0000 0.31030  0.02460  0.93300  Biso   1.000  F
  F87      1.0000 0.21220  0.97750  0.93000  Biso   1.000  F
  F88      1.0000 0.65000  0.80410  0.90500  Biso   1.000  F
  F89      1.0000 0.56930  0.74500  0.81410  Biso   1.000  F
  F90      1.0000 0.66660  0.68380  0.89100  Biso   1.000  F
  F91      1.0000 0.35990  0.34070  0.89410  Biso   1.000  F
  F92      1.0000 0.24310  0.38280  0.84300  Biso   1.000  F
  F93      1.0000 0.32500  0.41020  0.79910  Biso   1.000  F
  F94      1.0000 0.24180  0.79770  0.29140  Biso   1.000  F
  F95      1.0000 0.20240  0.88530  0.22070  Biso   1.000  F
  F96      1.0000 0.16510  0.77400  0.19260  Biso   1.000  F
  Ag21     1.0000 0.98120  0.89543  0.48736  Biso   1.000  Ag
  Ag22     1.0000 0.82351  0.85330  0.46317  Biso   1.000  Ag
  Ag23     1.0000 0.95793  0.73428  0.50762  Biso   1.000  Ag
  Ag24     1.0000 0.86107  0.74622  0.59405  Biso   1.000  Ag
  Ag25     1.0000 0.97560  0.74110  0.75300  Biso   1.000  Ag
  C53      1.0000 0.93290  0.83770  0.56250  Biso   1.000  C
  C54      1.0000 0.95120  0.86560  0.62200  Biso   1.000  C
  C55      1.0000 0.97690  0.91080  0.68850  Biso   1.000  C
  C56      1.0000 0.97510  0.99340  0.68590  Biso   1.000  C
  H5       1.0000 0.95750  0.02020  0.64180  Biso   1.000  H
  O37      1.0000 0.70980  0.84950  0.50140  Biso   1.000  O
  O38      1.0000 0.61120  0.88410  0.53160  Biso   1.000  O
  C57      1.0000 0.67790  0.89050  0.53260  Biso   1.000  C
  C58      1.0000 0.73150  0.95370  0.58150  Biso   1.000  C
  F97      1.0000 0.69150  0.00350  0.60580  Biso   1.000  F
  F98      1.0000 0.78850  0.92220  0.63950  Biso   1.000  F
  F99      1.0000 0.76550  0.99770  0.54790  Biso   1.000  F
  O39      1.0000 0.04760  0.85240  0.42390  Biso   1.000  O
  O40      1.0000 0.03360  0.72330  0.44060  Biso   1.000  O
  C59      1.0000 0.05990  0.78180  0.42020  Biso   1.000  C
  C60      1.0000 0.11420  0.76180  0.38140  Biso   1.000  C
  F100     1.0000 0.10400  0.80800  0.32830  Biso   1.000  F
  F101     1.0000 0.18700  0.76600  0.42470  Biso   1.000  F
  F102     1.0000 0.10400  0.69150  0.35400  Biso   1.000  F
  O41      1.0000 0.91680  0.01240  0.43290  Biso   1.000  O
  O42      1.0000 0.79100  0.97580  0.40200  Biso   1.000  O
  C61      1.0000 0.84480  0.02190  0.40360  Biso   1.000  C
  C62      1.0000 0.81650  0.10000  0.36000  Biso   1.000  C
  F103     1.0000 0.85680  0.12530  0.32960  Biso   1.000  F
  F104     1.0000 0.74740  0.09740  0.31250  Biso   1.000  F
  F105     1.0000 0.81300  0.15550  0.40080  Biso   1.000  F
  O43      1.0000 0.64020  0.79650  0.24730  Biso   1.000  O
  O44      1.0000 0.72670  0.79150  0.36150  Biso   1.000  O
  C63      1.0000 0.70640  0.80020  0.29550  Biso   1.000  C
  C64      1.0000 0.77500  0.81540  0.27210  Biso   1.000  C
  F106     1.0000 0.83980  0.83490  0.32280  Biso   1.000  F
  F107     1.0000 0.78820  0.75410  0.24200  Biso   1.000  F
  F108     1.0000 0.75710  0.87300  0.22600  Biso   1.000  F
  O45      1.0000 0.96280  0.63280  0.65940  Biso   1.000  O
  C65      1.0000 0.77350  0.53830  0.42330  Biso   1.000  C
  F109     1.0000 0.75200  0.55100  0.35870  Biso   1.000  F
  F110     1.0000 0.81030  0.47540  0.43300  Biso   1.000  F
  F111     1.0000 0.71220  0.52250  0.43000  Biso   1.000  F
  F112     1.0000 0.15000  0.69590  0.40500  Biso   1.000  F
  F113     1.0000 0.06930  0.75500  0.31410  Biso   1.000  F
  F114     1.0000 0.16660  0.81620  0.39100  Biso   1.000  F
  F115     1.0000 0.85990  0.15930  0.39410  Biso   1.000  F
  F116     1.0000 0.74310  0.11720  0.34300  Biso   1.000  F
  F117     1.0000 0.82500  0.08980  0.29910  Biso   1.000  F
  F118     1.0000 0.74180  0.70230  0.79140  Biso   1.000  F
  F119     1.0000 0.70240  0.61470  0.72070  Biso   1.000  F
  F120     1.0000 0.66510  0.72600  0.69260  Biso   1.000  F
  Ag26     1.0000 0.48120  0.39543  0.48736  Biso   1.000  Ag
  Ag27     1.0000 0.32351  0.35330  0.46317  Biso   1.000  Ag
  Ag28     1.0000 0.45793  0.23428  0.50762  Biso   1.000  Ag
  Ag29     1.0000 0.36107  0.24622  0.59405  Biso   1.000  Ag
  Ag30     1.0000 0.47560  0.24110  0.75300  Biso   1.000  Ag
  C66      1.0000 0.43290  0.33770  0.56250  Biso   1.000  C
  C67      1.0000 0.45120  0.36560  0.62200  Biso   1.000  C
  C68      1.0000 0.47690  0.41080  0.68850  Biso   1.000  C
  C69      1.0000 0.47510  0.49340  0.68590  Biso   1.000  C
  H6       1.0000 0.45750  0.52020  0.64180  Biso   1.000  H
  O46      1.0000 0.20980  0.34950  0.50140  Biso   1.000  O
  O47      1.0000 0.11120  0.38410  0.53160  Biso   1.000  O
  C70      1.0000 0.17790  0.39050  0.53260  Biso   1.000  C
  C71      1.0000 0.23150  0.45370  0.58150  Biso   1.000  C
  F121     1.0000 0.19150  0.50350  0.60580  Biso   1.000  F
  F122     1.0000 0.28850  0.42220  0.63950  Biso   1.000  F
  F123     1.0000 0.26550  0.49770  0.54790  Biso   1.000  F
  O48      1.0000 0.54760  0.35240  0.42390  Biso   1.000  O
  O49      1.0000 0.53360  0.22330  0.44060  Biso   1.000  O
  C72      1.0000 0.55990  0.28180  0.42020  Biso   1.000  C
  C73      1.0000 0.61420  0.26180  0.38140  Biso   1.000  C
  F124     1.0000 0.60400  0.30800  0.32830  Biso   1.000  F
  F125     1.0000 0.68700  0.26600  0.42470  Biso   1.000  F
  F126     1.0000 0.60400  0.19150  0.35400  Biso   1.000  F
  O50      1.0000 0.41680  0.51240  0.43290  Biso   1.000  O
  O51      1.0000 0.29100  0.47580  0.40200  Biso   1.000  O
  C74      1.0000 0.34480  0.52190  0.40360  Biso   1.000  C
  C75      1.0000 0.31650  0.60000  0.36000  Biso   1.000  C
  F127     1.0000 0.35680  0.62530  0.32960  Biso   1.000  F
  F128     1.0000 0.24740  0.59740  0.31250  Biso   1.000  F
  F129     1.0000 0.31300  0.65550  0.40080  Biso   1.000  F
  O52      1.0000 0.14020  0.29650  0.24730  Biso   1.000  O
  O53      1.0000 0.22670  0.29150  0.36150  Biso   1.000  O
  C76      1.0000 0.20640  0.30020  0.29550  Biso   1.000  C
  C77      1.0000 0.27500  0.31540  0.27210  Biso   1.000  C
  F130     1.0000 0.33980  0.33490  0.32280  Biso   1.000  F
  F131     1.0000 0.28820  0.25410  0.24200  Biso   1.000  F
  F132     1.0000 0.25710  0.37300  0.22600  Biso   1.000  F
  O54      1.0000 0.46280  0.13280  0.65940  Biso   1.000  O
  C78      1.0000 0.27350  0.03830  0.42330  Biso   1.000  C
  F133     1.0000 0.25200  0.05100  0.35870  Biso   1.000  F
  F134     1.0000 0.31030  0.97540  0.43300  Biso   1.000  F
  F135     1.0000 0.21220  0.02250  0.43000  Biso   1.000  F
  F136     1.0000 0.65000  0.19590  0.40500  Biso   1.000  F
  F137     1.0000 0.56930  0.25500  0.31410  Biso   1.000  F
  F138     1.0000 0.66660  0.31620  0.39100  Biso   1.000  F
  F139     1.0000 0.35990  0.65930  0.39410  Biso   1.000  F
  F140     1.0000 0.24310  0.61720  0.34300  Biso   1.000  F
  F141     1.0000 0.32500  0.58980  0.29910  Biso   1.000  F
  F142     1.0000 0.24180  0.20230  0.79140  Biso   1.000  F
  F143     1.0000 0.20240  0.11470  0.72070  Biso   1.000  F
  F144     1.0000 0.16510  0.22600  0.69260  Biso   1.000  F
  Ag31     1.0000 0.01880  0.89543  0.01264  Biso   1.000  Ag
  Ag32     1.0000 0.17649  0.85330  0.03683  Biso   1.000  Ag
  Ag33     1.0000 0.04207  0.73428  0.99238  Biso   1.000  Ag
  Ag34     1.0000 0.13893  0.74622  0.90595  Biso   1.000  Ag
  Ag35     1.0000 0.02440  0.74110  0.74700  Biso   1.000  Ag
  C79      1.0000 0.06710  0.83770  0.93750  Biso   1.000  C
  C80      1.0000 0.04880  0.86560  0.87800  Biso   1.000  C
  C81      1.0000 0.02310  0.91080  0.81150  Biso   1.000  C
  C82      1.0000 0.02490  0.99340  0.81410  Biso   1.000  C
  H7       1.0000 0.04250  0.02020  0.85820  Biso   1.000  H
  O55      1.0000 0.29020  0.84950  0.99860  Biso   1.000  O
  O56      1.0000 0.38880  0.88410  0.96840  Biso   1.000  O
  C83      1.0000 0.32210  0.89050  0.96740  Biso   1.000  C
  C84      1.0000 0.26850  0.95370  0.91850  Biso   1.000  C
  F145     1.0000 0.30850  0.00350  0.89420  Biso   1.000  F
  F146     1.0000 0.21150  0.92220  0.86050  Biso   1.000  F
  F147     1.0000 0.23450  0.99770  0.95210  Biso   1.000  F
  O57      1.0000 0.95240  0.85240  0.07610  Biso   1.000  O
  O58      1.0000 0.96640  0.72330  0.05940  Biso   1.000  O
  C85      1.0000 0.94010  0.78180  0.07980  Biso   1.000  C
  C86      1.0000 0.88580  0.76180  0.11860  Biso   1.000  C
  F148     1.0000 0.89600  0.80800  0.17170  Biso   1.000  F
  F149     1.0000 0.81300  0.76600  0.07530  Biso   1.000  F
  F150     1.0000 0.89600  0.69150  0.14600  Biso   1.000  F
  O59      1.0000 0.08320  0.01240  0.06710  Biso   1.000  O
  O60      1.0000 0.20900  0.97580  0.09800  Biso   1.000  O
  C87      1.0000 0.15520  0.02190  0.09640  Biso   1.000  C
  C88      1.0000 0.18350  0.10000  0.14000  Biso   1.000  C
  F151     1.0000 0.14320  0.12530  0.17040  Biso   1.000  F
  F152     1.0000 0.25260  0.09740  0.18750  Biso   1.000  F
  F153     1.0000 0.18700  0.15550  0.09920  Biso   1.000  F
  O61      1.0000 0.35980  0.79650  0.25270  Biso   1.000  O
  O62      1.0000 0.27330  0.79150  0.13850  Biso   1.000  O
  C89      1.0000 0.29360  0.80020  0.20450  Biso   1.000  C
  C90      1.0000 0.22500  0.81540  0.22790  Biso   1.000  C
  F154     1.0000 0.16020  0.83490  0.17720  Biso   1.000  F
  F155     1.0000 0.21180  0.75410  0.25800  Biso   1.000  F
  F156     1.0000 0.24290  0.87300  0.27400  Biso   1.000  F
  O63      1.0000 0.03720  0.63280  0.84060  Biso   1.000  O
  C91      1.0000 0.22650  0.53830  0.07670  Biso   1.000  C
  F157     1.0000 0.24800  0.55100  0.14130  Biso   1.000  F
  F158     1.0000 0.18970  0.47540  0.06700  Biso   1.000  F
  F159     1.0000 0.28780  0.52250  0.07000  Biso   1.000  F
  F160     1.0000 0.85000  0.69590  0.09500  Biso   1.000  F
  F161     1.0000 0.93070  0.75500  0.18590  Biso   1.000  F
  F162     1.0000 0.83340  0.81620  0.10900  Biso   1.000  F
  F163     1.0000 0.14010  0.15930  0.10590  Biso   1.000  F
  F164     1.0000 0.25690  0.11720  0.15700  Biso   1.000  F
  F165     1.0000 0.17500  0.08980  0.20090  Biso   1.000  F
  F166     1.0000 0.25820  0.70230  0.70860  Biso   1.000  F
  F167     1.0000 0.29760  0.61470  0.77930  Biso   1.000  F
  F168     1.0000 0.33490  0.72600  0.80740  Biso   1.000  F
  Ag36     1.0000 0.51880  0.39543  0.01264  Biso   1.000  Ag
  Ag37     1.0000 0.67649  0.35330  0.03683  Biso   1.000  Ag
  Ag38     1.0000 0.54207  0.23428  0.99238  Biso   1.000  Ag
  Ag39     1.0000 0.63893  0.24622  0.90595  Biso   1.000  Ag
  Ag40     1.0000 0.52440  0.24110  0.74700  Biso   1.000  Ag
  C92      1.0000 0.56710  0.33770  0.93750  Biso   1.000  C
  C93      1.0000 0.54880  0.36560  0.87800  Biso   1.000  C
  C94      1.0000 0.52310  0.41080  0.81150  Biso   1.000  C
  C95      1.0000 0.52490  0.49340  0.81410  Biso   1.000  C
  H8       1.0000 0.54250  0.52020  0.85820  Biso   1.000  H
  O64      1.0000 0.79020  0.34950  0.99860  Biso   1.000  O
  O65      1.0000 0.88880  0.38410  0.96840  Biso   1.000  O
  C96      1.0000 0.82210  0.39050  0.96740  Biso   1.000  C
  C97      1.0000 0.76850  0.45370  0.91850  Biso   1.000  C
  F169     1.0000 0.80850  0.50350  0.89420  Biso   1.000  F
  F170     1.0000 0.71150  0.42220  0.86050  Biso   1.000  F
  F171     1.0000 0.73450  0.49770  0.95210  Biso   1.000  F
  O66      1.0000 0.45240  0.35240  0.07610  Biso   1.000  O
  O67      1.0000 0.46640  0.22330  0.05940  Biso   1.000  O
  C98      1.0000 0.44010  0.28180  0.07980  Biso   1.000  C
  C99      1.0000 0.38580  0.26180  0.11860  Biso   1.000  C
  F172     1.0000 0.39600  0.30800  0.17170  Biso   1.000  F
  F173     1.0000 0.31300  0.26600  0.07530  Biso   1.000  F
  F174     1.0000 0.39600  0.19150  0.14600  Biso   1.000  F
  O68      1.0000 0.58320  0.51240  0.06710  Biso   1.000  O
  O69      1.0000 0.70900  0.47580  0.09800  Biso   1.000  O
  C100     1.0000 0.65520  0.52190  0.09640  Biso   1.000  C
  C101     1.0000 0.68350  0.60000  0.14000  Biso   1.000  C
  F175     1.0000 0.64320  0.62530  0.17040  Biso   1.000  F
  F176     1.0000 0.75260  0.59740  0.18750  Biso   1.000  F
  F177     1.0000 0.68700  0.65550  0.09920  Biso   1.000  F
  O70      1.0000 0.85980  0.29650  0.25270  Biso   1.000  O
  O71      1.0000 0.77330  0.29150  0.13850  Biso   1.000  O
  C102     1.0000 0.79360  0.30020  0.20450  Biso   1.000  C
  C103     1.0000 0.72500  0.31540  0.22790  Biso   1.000  C
  F178     1.0000 0.66020  0.33490  0.17720  Biso   1.000  F
  F179     1.0000 0.71180  0.25410  0.25800  Biso   1.000  F
  F180     1.0000 0.74290  0.37300  0.27400  Biso   1.000  F
  O72      1.0000 0.53720  0.13280  0.84060  Biso   1.000  O
  C104     1.0000 0.72650  0.03830  0.07670  Biso   1.000  C
  F181     1.0000 0.74800  0.05100  0.14130  Biso   1.000  F
  F182     1.0000 0.68970  0.97540  0.06700  Biso   1.000  F
  F183     1.0000 0.78780  0.02250  0.07000  Biso   1.000  F
  F184     1.0000 0.35000  0.19590  0.09500  Biso   1.000  F
  F185     1.0000 0.43070  0.25500  0.18590  Biso   1.000  F
  F186     1.0000 0.33340  0.31620  0.10900  Biso   1.000  F
  F187     1.0000 0.64010  0.65930  0.10590  Biso   1.000  F
  F188     1.0000 0.75690  0.61720  0.15700  Biso   1.000  F
  F189     1.0000 0.67500  0.58980  0.20090  Biso   1.000  F
  F190     1.0000 0.75820  0.20230  0.70860  Biso   1.000  F
  F191     1.0000 0.79760  0.11470  0.77930  Biso   1.000  F
  F192     1.0000 0.83490  0.22600  0.80740  Biso   1.000  F
  Ag41     1.0000 0.00000  0.26500  0.25000  Biso   1.000  Ag
  N1       1.0000 0.00000  0.13080  0.25000  Biso   1.000  N
  C105     1.0000 0.00000  0.96530  0.25000  Biso   1.000  C
  H9       1.0000 0.00000  0.90980  0.25000  Biso   1.000  H
  Ag42     1.0000 0.50000  0.76500  0.25000  Biso   1.000  Ag
  N2       1.0000 0.50000  0.63080  0.25000  Biso   1.000  N
  C106     1.0000 0.50000  0.46530  0.25000  Biso   1.000  C
  H10      1.0000 0.50000  0.40980  0.25000  Biso   1.000  H
  Ag43     1.0000 0.00000  0.73500  0.75000  Biso   1.000  Ag
  N3       1.0000 0.00000  0.86920  0.75000  Biso   1.000  N
  C107     1.0000 0.00000  0.03470  0.75000  Biso   1.000  C
  H11      1.0000 0.00000  0.09020  0.75000  Biso   1.000  H
  Ag44     1.0000 0.50000  0.23500  0.75000  Biso   1.000  Ag
  N4       1.0000 0.50000  0.36920  0.75000  Biso   1.000  N
  C108     1.0000 0.50000  0.53470  0.75000  Biso   1.000  C
  H12      1.0000 0.50000  0.59020  0.75000  Biso   1.000  H
