data_image0
_cell_length_a       13.177
_cell_length_b       13.2269
_cell_length_c       13.2269
_cell_angle_alpha    91.5649
_cell_angle_beta     100.129
_cell_angle_gamma    79.8713

_symmetry_space_group_name_H-M    P 1
_symmetry_int_tables_number       1

loop_
  _symmetry_equiv_pos_as_xyz
  'x, y, z'

loop_
  _atom_site_label
  _atom_site_occupancy
  _atom_site_fract_x
  _atom_site_fract_y
  _atom_site_fract_z
  _atom_site_thermal_displace_type
  _atom_site_B_iso_or_equiv
  _atom_site_type_symbol
  Zn1      1.0000 0.00373  0.36323  0.70753  Biso   1.000  Zn
  Zn2      1.0000 0.19129  0.23598  0.61100  Biso   1.000  Zn
  Zn3      1.0000 0.50373  0.29247  0.63677  Biso   1.000  Zn
  Zn4      1.0000 0.69129  0.38900  0.76402  Biso   1.000  Zn
  H1       1.0000 0.49200  0.99740  0.20840  Biso   1.000  H
  H2       1.0000 0.45780  0.91340  0.12920  Biso   1.000  H
  H3       1.0000 0.63020  0.87030  0.02050  Biso   1.000  H
  H4       1.0000 0.58720  0.78120  0.06640  Biso   1.000  H
  H5       1.0000 0.61950  0.87010  0.32830  Biso   1.000  H
  H6       1.0000 0.69920  0.78620  0.28280  Biso   1.000  H
  H7       1.0000 0.70460  0.99990  0.13870  Biso   1.000  H
  H8       1.0000 0.76960  0.91960  0.22160  Biso   1.000  H
  H9       1.0000 0.31410  0.03200  0.09100  Biso   1.000  H
  H10      1.0000 0.49540  0.14300  0.92180  Biso   1.000  H
  H11      1.0000 0.16800  0.12130  0.98730  Biso   1.000  H
  H12      1.0000 0.35120  0.23060  0.82180  Biso   1.000  H
  H13      1.0000 0.64130  0.72380  0.91800  Biso   1.000  H
  H14      1.0000 0.27010  0.08970  0.72230  Biso   1.000  H
  H15      1.0000 0.91050  0.65240  0.11880  Biso   1.000  H
  H16      1.0000 0.70610  0.59870  0.80710  Biso   1.000  H
  H17      1.0000 0.97650  0.53600  0.00400  Biso   1.000  H
  H18      1.0000 0.42770  0.64510  0.26470  Biso   1.000  H
  H19      1.0000 0.69720  0.71410  0.41710  Biso   1.000  H
  H20      1.0000 0.43350  0.51920  0.38480  Biso   1.000  H
  H21      1.0000 0.70780  0.58030  0.53130  Biso   1.000  H
  H22      1.0000 0.87440  0.02240  0.27260  Biso   1.000  H
  H23      1.0000 0.64710  0.13740  0.42980  Biso   1.000  H
  H24      1.0000 0.98970  0.09980  0.38440  Biso   1.000  H
  H25      1.0000 0.76510  0.21460  0.54220  Biso   1.000  H
  H26      1.0000 0.15200  0.02460  0.60360  Biso   1.000  H
  H27      1.0000 0.25160  0.01930  0.55670  Biso   1.000  H
  H28      1.0000 0.23610  0.85800  0.57900  Biso   1.000  H
  H29      1.0000 0.32810  0.87640  0.66620  Biso   1.000  H
  H30      1.0000 0.21590  0.87920  0.69160  Biso   1.000  H
  H31      1.0000 0.99200  0.79160  0.00260  Biso   1.000  H
  H32      1.0000 0.95780  0.87080  0.08660  Biso   1.000  H
  H33      1.0000 0.13020  0.97950  0.12970  Biso   1.000  H
  H34      1.0000 0.08720  0.93360  0.21880  Biso   1.000  H
  H35      1.0000 0.11950  0.67170  0.12990  Biso   1.000  H
  H36      1.0000 0.19920  0.71720  0.21380  Biso   1.000  H
  H37      1.0000 0.20460  0.86130  0.00010  Biso   1.000  H
  H38      1.0000 0.26960  0.77840  0.08040  Biso   1.000  H
  H39      1.0000 0.81410  0.90900  0.96800  Biso   1.000  H
  H40      1.0000 0.99540  0.07820  0.85700  Biso   1.000  H
  H41      1.0000 0.66800  0.01270  0.87870  Biso   1.000  H
  H42      1.0000 0.85120  0.17820  0.76940  Biso   1.000  H
  H43      1.0000 0.14130  0.08200  0.27620  Biso   1.000  H
  H44      1.0000 0.77010  0.27770  0.91030  Biso   1.000  H
  H45      1.0000 0.41050  0.88120  0.34760  Biso   1.000  H
  H46      1.0000 0.20610  0.19290  0.40130  Biso   1.000  H
  H47      1.0000 0.47650  0.99600  0.46400  Biso   1.000  H
  H48      1.0000 0.92770  0.73530  0.35490  Biso   1.000  H
  H49      1.0000 0.19720  0.58290  0.28590  Biso   1.000  H
  H50      1.0000 0.93350  0.61520  0.48080  Biso   1.000  H
  H51      1.0000 0.20780  0.46870  0.41970  Biso   1.000  H
  H52      1.0000 0.37440  0.72740  0.97760  Biso   1.000  H
  H53      1.0000 0.14710  0.57020  0.86260  Biso   1.000  H
  H54      1.0000 0.48970  0.61560  0.90020  Biso   1.000  H
  H55      1.0000 0.26510  0.45780  0.78540  Biso   1.000  H
  H56      1.0000 0.65200  0.39640  0.97540  Biso   1.000  H
  H57      1.0000 0.75160  0.44330  0.98070  Biso   1.000  H
  H58      1.0000 0.73610  0.42100  0.14200  Biso   1.000  H
  H59      1.0000 0.82810  0.33380  0.12360  Biso   1.000  H
  H60      1.0000 0.71590  0.30840  0.12080  Biso   1.000  H
  C1       1.0000 0.61830  0.89400  0.17440  Biso   1.000  C
  C2       1.0000 0.50930  0.95750  0.14930  Biso   1.000  C
  C3       1.0000 0.63780  0.82700  0.08040  Biso   1.000  C
  C4       1.0000 0.62940  0.82700  0.26900  Biso   1.000  C
  C5       1.0000 0.70150  0.96150  0.19910  Biso   1.000  C
  C6       1.0000 0.41930  0.07530  0.01510  Biso   1.000  C
  C7       1.0000 0.32150  0.07080  0.03600  Biso   1.000  C
  C8       1.0000 0.42930  0.13780  0.93440  Biso   1.000  C
  C9       1.0000 0.23430  0.12490  0.97410  Biso   1.000  C
  C10      1.0000 0.34350  0.18990  0.87530  Biso   1.000  C
  C11      1.0000 0.24400  0.18450  0.89250  Biso   1.000  C
  C12      1.0000 0.14840  0.24140  0.82880  Biso   1.000  C
  C13      1.0000 0.77050  0.69960  0.02960  Biso   1.000  C
  C14      1.0000 0.70790  0.68500  0.93580  Biso   1.000  C
  C15      1.0000 0.86980  0.64290  0.05550  Biso   1.000  C
  C16      1.0000 0.74760  0.61050  0.86930  Biso   1.000  C
  C17      1.0000 0.90850  0.57230  0.98770  Biso   1.000  C
  C18      1.0000 0.84590  0.55480  0.89360  Biso   1.000  C
  C19      1.0000 0.88910  0.47800  0.82180  Biso   1.000  C
  C20      1.0000 0.56370  0.68910  0.32790  Biso   1.000  C
  C21      1.0000 0.48380  0.63250  0.31890  Biso   1.000  C
  C22      1.0000 0.64560  0.67320  0.40880  Biso   1.000  C
  C23      1.0000 0.48740  0.55700  0.39080  Biso   1.000  C
  C24      1.0000 0.65020  0.59450  0.47870  Biso   1.000  C
  C25      1.0000 0.57100  0.53740  0.47160  Biso   1.000  C
  C26      1.0000 0.57750  0.45700  0.54940  Biso   1.000  C
  C27      1.0000 0.74950  0.07230  0.33990  Biso   1.000  C
  C28      1.0000 0.85200  0.06100  0.32680  Biso   1.000  C
  C29      1.0000 0.71650  0.12970  0.42090  Biso   1.000  C
  C30      1.0000 0.92060  0.10690  0.39430  Biso   1.000  C
  C31      1.0000 0.78750  0.17530  0.48830  Biso   1.000  C
  C32      1.0000 0.89100  0.16370  0.47690  Biso   1.000  C
  C33      1.0000 0.96890  0.21030  0.55030  Biso   1.000  C
  C34      1.0000 0.22780  0.01330  0.62130  Biso   1.000  C
  C35      1.0000 0.25450  0.89540  0.64080  Biso   1.000  C
  C36      1.0000 0.11830  0.82560  0.10600  Biso   1.000  C
  C37      1.0000 0.00930  0.85070  0.04250  Biso   1.000  C
  C38      1.0000 0.13780  0.91960  0.17300  Biso   1.000  C
  C39      1.0000 0.12940  0.73100  0.17300  Biso   1.000  C
  C40      1.0000 0.20150  0.80090  0.03850  Biso   1.000  C
  C41      1.0000 0.91930  0.98490  0.92470  Biso   1.000  C
  C42      1.0000 0.82150  0.96400  0.92920  Biso   1.000  C
  C43      1.0000 0.92930  0.06560  0.86220  Biso   1.000  C
  C44      1.0000 0.73430  0.02590  0.87510  Biso   1.000  C
  C45      1.0000 0.84350  0.12470  0.81010  Biso   1.000  C
  C46      1.0000 0.74400  0.10750  0.81550  Biso   1.000  C
  C47      1.0000 0.64840  0.17120  0.75860  Biso   1.000  C
  C48      1.0000 0.27050  0.97040  0.30040  Biso   1.000  C
  C49      1.0000 0.20790  0.06420  0.31500  Biso   1.000  C
  C50      1.0000 0.36980  0.94450  0.35710  Biso   1.000  C
  C51      1.0000 0.24760  0.13070  0.38950  Biso   1.000  C
  C52      1.0000 0.40850  0.01230  0.42770  Biso   1.000  C
  C53      1.0000 0.34590  0.10640  0.44520  Biso   1.000  C
  C54      1.0000 0.38910  0.17820  0.52200  Biso   1.000  C
  C55      1.0000 0.06370  0.67210  0.31090  Biso   1.000  C
  C56      1.0000 0.98380  0.68110  0.36750  Biso   1.000  C
  C57      1.0000 0.14560  0.59120  0.32680  Biso   1.000  C
  C58      1.0000 0.98740  0.60920  0.44300  Biso   1.000  C
  C59      1.0000 0.15020  0.52130  0.40550  Biso   1.000  C
  C60      1.0000 0.07100  0.52840  0.46260  Biso   1.000  C
  C61      1.0000 0.07750  0.45060  0.54300  Biso   1.000  C
  C62      1.0000 0.24950  0.66010  0.92770  Biso   1.000  C
  C63      1.0000 0.35200  0.67320  0.93900  Biso   1.000  C
  C64      1.0000 0.21650  0.57910  0.87030  Biso   1.000  C
  C65      1.0000 0.42060  0.60570  0.89310  Biso   1.000  C
  C66      1.0000 0.28750  0.51170  0.82470  Biso   1.000  C
  C67      1.0000 0.39100  0.52310  0.83630  Biso   1.000  C
  C68      1.0000 0.46890  0.44970  0.78970  Biso   1.000  C
  C69      1.0000 0.72780  0.37870  0.98670  Biso   1.000  C
  C70      1.0000 0.75450  0.35920  0.10460  Biso   1.000  C
  O1       1.0000 0.51100  0.02350  0.06690  Biso   1.000  O
  O2       1.0000 0.74000  0.76984  0.10144  Biso   1.000  O
  O3       1.0000 0.55400  0.76111  0.25269  Biso   1.000  O
  O4       1.0000 0.67370  0.02942  0.27822  Biso   1.000  O
  O5       1.0000 0.06110  0.24447  0.85013  Biso   1.000  O
  O6       1.0000 0.15930  0.29119  0.74865  Biso   1.000  O
  O7       1.0000 0.83310  0.42568  0.76348  Biso   1.000  O
  O8       1.0000 0.98540  0.46683  0.81863  Biso   1.000  O
  O9       1.0000 0.50970  0.40010  0.53690  Biso   1.000  O
  O10      1.0000 0.65280  0.45090  0.62210  Biso   1.000  O
  O11      1.0000 0.06010  0.19470  0.53490  Biso   1.000  O
  O12      1.0000 0.93540  0.26207  0.62247  Biso   1.000  O
  O13      1.0000 0.24190  0.08630  0.65970  Biso   1.000  O
  O14      1.0000 0.01100  0.93310  0.97650  Biso   1.000  O
  O15      1.0000 0.24000  0.89856  0.23016  Biso   1.000  O
  O16      1.0000 0.05400  0.74731  0.23889  Biso   1.000  O
  O17      1.0000 0.17370  0.72178  0.97058  Biso   1.000  O
  O18      1.0000 0.56110  0.14987  0.75553  Biso   1.000  O
  O19      1.0000 0.65930  0.25135  0.70881  Biso   1.000  O
  O20      1.0000 0.33310  0.23652  0.57432  Biso   1.000  O
  O21      1.0000 0.48540  0.18137  0.53317  Biso   1.000  O
  O22      1.0000 0.00970  0.46310  0.59990  Biso   1.000  O
  O23      1.0000 0.15280  0.37790  0.54910  Biso   1.000  O
  O24      1.0000 0.56010  0.46510  0.80530  Biso   1.000  O
  O25      1.0000 0.43540  0.37753  0.73793  Biso   1.000  O
  O26      1.0000 0.74190  0.34030  0.91370  Biso   1.000  O
