data_image0
_cell_length_a       10.137
_cell_length_b       10.228
_cell_length_c       12.747
_cell_angle_alpha    74.562
_cell_angle_beta     83.796
_cell_angle_gamma    60.952

_symmetry_space_group_name_H-M    P 1
_symmetry_int_tables_number       1

loop_
  _symmetry_equiv_pos_as_xyz
  'x, y, z'

loop_
  _atom_site_label
  _atom_site_occupancy
  _atom_site_fract_x
  _atom_site_fract_y
  _atom_site_fract_z
  _atom_site_thermal_displace_type
  _atom_site_B_iso_or_equiv
  _atom_site_type_symbol
  Zn1      1.0000 0.50787  0.59543  0.71489  Biso   1.000  Zn
  Zn2      1.0000 0.84511  0.88619  0.84619  Biso   1.000  Zn
  Zn3      1.0000 0.49213  0.40457  0.28511  Biso   1.000  Zn
  Zn4      1.0000 0.15489  0.11381  0.15381  Biso   1.000  Zn
  Zn5      1.0000 0.50000  0.50000  0.00000  Biso   1.000  Zn
  H1       1.0000 0.69930  0.68550  0.00740  Biso   1.000  H
  H2       1.0000 0.68450  0.12020  0.99900  Biso   1.000  H
  H3       1.0000 0.13200  0.81800  0.67400  Biso   1.000  H
  H4       1.0000 0.12900  0.70800  0.99000  Biso   1.000  H
  H5       1.0000 0.71900  0.75400  0.69500  Biso   1.000  H
  H6       1.0000 0.69100  0.22800  0.68500  Biso   1.000  H
  H7       1.0000 0.30070  0.31450  0.99260  Biso   1.000  H
  H8       1.0000 0.31550  0.87980  0.00100  Biso   1.000  H
  H9       1.0000 0.86800  0.18200  0.32600  Biso   1.000  H
  H10      1.0000 0.87100  0.29200  0.01000  Biso   1.000  H
  H11      1.0000 0.28100  0.24600  0.30500  Biso   1.000  H
  H12      1.0000 0.30900  0.77200  0.31500  Biso   1.000  H
  C1       1.0000 0.16170  0.77430  0.74720  Biso   1.000  C
  C2       1.0000 0.16760  0.70860  0.91990  Biso   1.000  C
  C3       1.0000 0.69770  0.73010  0.76640  Biso   1.000  C
  C4       1.0000 0.68670  0.68860  0.93540  Biso   1.000  C
  C5       1.0000 0.67650  0.23770  0.75660  Biso   1.000  C
  C6       1.0000 0.66970  0.17740  0.92700  Biso   1.000  C
  C7       1.0000 0.51540  0.71820  0.49210  Biso   1.000  C
  C8       1.0000 0.60600  0.73910  0.39280  Biso   1.000  C
  C9       1.0000 0.69730  0.61560  0.34550  Biso   1.000  C
  C10      1.0000 0.60750  0.87580  0.34450  Biso   1.000  C
  C11      1.0000 0.78400  0.63030  0.25520  Biso   1.000  C
  C12      1.0000 0.69450  0.88810  0.25550  Biso   1.000  C
  C13      1.0000 0.78520  0.76610  0.21190  Biso   1.000  C
  C14      1.0000 0.88480  0.77950  0.11940  Biso   1.000  C
  C15      1.0000 0.83830  0.22570  0.25280  Biso   1.000  C
  C16      1.0000 0.83240  0.29140  0.08010  Biso   1.000  C
  C17      1.0000 0.30230  0.26990  0.23360  Biso   1.000  C
  C18      1.0000 0.31330  0.31140  0.06460  Biso   1.000  C
  C19      1.0000 0.32350  0.76230  0.24340  Biso   1.000  C
  C20      1.0000 0.33030  0.82260  0.07300  Biso   1.000  C
  C21      1.0000 0.48460  0.28180  0.50790  Biso   1.000  C
  C22      1.0000 0.39400  0.26090  0.60720  Biso   1.000  C
  C23      1.0000 0.30270  0.38440  0.65450  Biso   1.000  C
  C24      1.0000 0.39250  0.12420  0.65550  Biso   1.000  C
  C25      1.0000 0.21600  0.36970  0.74480  Biso   1.000  C
  C26      1.0000 0.30550  0.11190  0.74450  Biso   1.000  C
  C27      1.0000 0.21480  0.23390  0.78810  Biso   1.000  C
  C28      1.0000 0.11520  0.22050  0.88060  Biso   1.000  C
  N1       1.0000 0.30550  0.68400  0.77890  Biso   1.000  N
  N2       1.0000 0.30980  0.64290  0.89060  Biso   1.000  N
  N3       1.0000 0.06980  0.79120  0.83400  Biso   1.000  N
  N4       1.0000 0.62180  0.65510  0.79570  Biso   1.000  N
  N5       1.0000 0.61610  0.62650  0.90820  Biso   1.000  N
  N6       1.0000 0.74110  0.75880  0.85100  Biso   1.000  N
  N7       1.0000 0.59990  0.36820  0.78650  Biso   1.000  N
  N8       1.0000 0.59510  0.32880  0.89870  Biso   1.000  N
  N9       1.0000 0.72310  0.11230  0.84110  Biso   1.000  N
  N10      1.0000 0.69450  0.31600  0.22110  Biso   1.000  N
  N11      1.0000 0.69020  0.35710  0.10940  Biso   1.000  N
  N12      1.0000 0.93020  0.20880  0.16600  Biso   1.000  N
  N13      1.0000 0.37820  0.34490  0.20430  Biso   1.000  N
  N14      1.0000 0.38390  0.37350  0.09180  Biso   1.000  N
  N15      1.0000 0.25890  0.24120  0.14900  Biso   1.000  N
  N16      1.0000 0.40010  0.63180  0.21350  Biso   1.000  N
  N17      1.0000 0.40490  0.67120  0.10130  Biso   1.000  N
  N18      1.0000 0.27690  0.88770  0.15890  Biso   1.000  N
  O1       1.0000 0.59450  0.61200  0.57250  Biso   1.000  O
  O2       1.0000 0.38020  0.80600  0.49230  Biso   1.000  O
  O3       1.0000 0.02380  0.73020  0.14780  Biso   1.000  O
  O4       1.0000 0.83570  0.83310  0.02310  Biso   1.000  O
  O5       1.0000 0.40550  0.38800  0.42750  Biso   1.000  O
  O6       1.0000 0.61980  0.19400  0.50770  Biso   1.000  O
  O7       1.0000 0.97620  0.26980  0.85220  Biso   1.000  O
  O8       1.0000 0.16430  0.16690  0.97690  Biso   1.000  O
  F1       1.0000 0.69840  0.47990  0.38810  Biso   1.000  F
  F2       1.0000 0.52940  0.99650  0.38960  Biso   1.000  F
  F3       1.0000 0.87040  0.50820  0.21370  Biso   1.000  F
  F4       1.0000 0.69390  0.02590  0.21370  Biso   1.000  F
  F5       1.0000 0.30160  0.52010  0.61190  Biso   1.000  F
  F6       1.0000 0.47060  0.00350  0.61040  Biso   1.000  F
  F7       1.0000 0.12960  0.49180  0.78630  Biso   1.000  F
  F8       1.0000 0.30610  0.97410  0.78630  Biso   1.000  F
