data_image0
_cell_length_a       13.385
_cell_length_b       14.712
_cell_length_c       15.573
_cell_angle_alpha    90
_cell_angle_beta     90
_cell_angle_gamma    90

_symmetry_space_group_name_H-M    P 1
_symmetry_int_tables_number       1

loop_
  _symmetry_equiv_pos_as_xyz
  'x, y, z'

loop_
  _atom_site_label
  _atom_site_occupancy
  _atom_site_fract_x
  _atom_site_fract_y
  _atom_site_fract_z
  _atom_site_thermal_displace_type
  _atom_site_B_iso_or_equiv
  _atom_site_type_symbol
  Zn1      1.0000 0.21248  0.70270  0.79077  Biso   1.000  Zn
  Zn2      1.0000 0.04996  0.55194  0.90672  Biso   1.000  Zn
  Zn3      1.0000 0.28752  0.29730  0.29077  Biso   1.000  Zn
  Zn4      1.0000 0.45004  0.44806  0.40672  Biso   1.000  Zn
  Zn5      1.0000 0.78752  0.20270  0.70923  Biso   1.000  Zn
  Zn6      1.0000 0.95004  0.05194  0.59328  Biso   1.000  Zn
  Zn7      1.0000 0.71248  0.79730  0.20923  Biso   1.000  Zn
  Zn8      1.0000 0.54996  0.94806  0.09328  Biso   1.000  Zn
  H1       1.0000 0.90340  0.77600  0.99180  Biso   1.000  H
  H2       1.0000 0.75670  0.00430  0.92340  Biso   1.000  H
  H3       1.0000 0.98180  0.90890  0.77450  Biso   1.000  H
  H4       1.0000 0.97200  0.33630  0.97740  Biso   1.000  H
  H5       1.0000 0.93480  0.35680  0.88160  Biso   1.000  H
  H6       1.0000 0.05870  0.21700  0.93810  Biso   1.000  H
  H7       1.0000 0.97560  0.21430  0.86420  Biso   1.000  H
  H8       1.0000 0.08300  0.25770  0.84510  Biso   1.000  H
  H9       1.0000 0.92030  0.64390  0.06500  Biso   1.000  H
  H10      1.0000 0.94260  0.57830  0.14510  Biso   1.000  H
  H11      1.0000 0.07870  0.70650  0.07320  Biso   1.000  H
  H12      1.0000 0.03310  0.70980  0.16810  Biso   1.000  H
  H13      1.0000 0.11260  0.63300  0.14310  Biso   1.000  H
  H14      1.0000 0.80500  0.62680  0.82670  Biso   1.000  H
  H15      1.0000 0.89780  0.60240  0.76670  Biso   1.000  H
  H16      1.0000 0.73530  0.48650  0.79490  Biso   1.000  H
  H17      1.0000 0.75040  0.54830  0.71140  Biso   1.000  H
  H18      1.0000 0.82640  0.46700  0.73100  Biso   1.000  H
  H19      1.0000 0.59660  0.22400  0.49180  Biso   1.000  H
  H20      1.0000 0.74330  0.99570  0.42340  Biso   1.000  H
  H21      1.0000 0.51820  0.09110  0.27450  Biso   1.000  H
  H22      1.0000 0.52800  0.66370  0.47740  Biso   1.000  H
  H23      1.0000 0.56520  0.64320  0.38160  Biso   1.000  H
  H24      1.0000 0.44130  0.78300  0.43810  Biso   1.000  H
  H25      1.0000 0.52440  0.78570  0.36420  Biso   1.000  H
  H26      1.0000 0.41700  0.74230  0.34510  Biso   1.000  H
  H27      1.0000 0.57970  0.35610  0.56500  Biso   1.000  H
  H28      1.0000 0.55740  0.42170  0.64510  Biso   1.000  H
  H29      1.0000 0.42130  0.29350  0.57320  Biso   1.000  H
  H30      1.0000 0.46690  0.29020  0.66810  Biso   1.000  H
  H31      1.0000 0.38740  0.36700  0.64310  Biso   1.000  H
  H32      1.0000 0.69500  0.37320  0.32670  Biso   1.000  H
  H33      1.0000 0.60220  0.39760  0.26670  Biso   1.000  H
  H34      1.0000 0.76470  0.51350  0.29490  Biso   1.000  H
  H35      1.0000 0.74960  0.45170  0.21140  Biso   1.000  H
  H36      1.0000 0.67360  0.53300  0.23100  Biso   1.000  H
  H37      1.0000 0.09660  0.27600  0.50820  Biso   1.000  H
  H38      1.0000 0.24330  0.50430  0.57660  Biso   1.000  H
  H39      1.0000 0.01820  0.40890  0.72550  Biso   1.000  H
  H40      1.0000 0.02800  0.83630  0.52260  Biso   1.000  H
  H41      1.0000 0.06520  0.85680  0.61840  Biso   1.000  H
  H42      1.0000 0.94130  0.71700  0.56190  Biso   1.000  H
  H43      1.0000 0.02440  0.71430  0.63580  Biso   1.000  H
  H44      1.0000 0.91700  0.75770  0.65490  Biso   1.000  H
  H45      1.0000 0.07970  0.14390  0.43500  Biso   1.000  H
  H46      1.0000 0.05740  0.07830  0.35490  Biso   1.000  H
  H47      1.0000 0.92130  0.20650  0.42680  Biso   1.000  H
  H48      1.0000 0.96690  0.20980  0.33190  Biso   1.000  H
  H49      1.0000 0.88740  0.13300  0.35690  Biso   1.000  H
  H50      1.0000 0.19500  0.12680  0.67330  Biso   1.000  H
  H51      1.0000 0.10220  0.10240  0.73330  Biso   1.000  H
  H52      1.0000 0.26470  0.98650  0.70510  Biso   1.000  H
  H53      1.0000 0.24960  0.04830  0.78860  Biso   1.000  H
  H54      1.0000 0.17360  0.96700  0.76900  Biso   1.000  H
  H55      1.0000 0.40340  0.72400  0.00820  Biso   1.000  H
  H56      1.0000 0.25670  0.49570  0.07660  Biso   1.000  H
  H57      1.0000 0.48180  0.59110  0.22550  Biso   1.000  H
  H58      1.0000 0.47200  0.16370  0.02260  Biso   1.000  H
  H59      1.0000 0.43480  0.14320  0.11840  Biso   1.000  H
  H60      1.0000 0.55870  0.28300  0.06190  Biso   1.000  H
  H61      1.0000 0.47560  0.28570  0.13580  Biso   1.000  H
  H62      1.0000 0.58300  0.24230  0.15490  Biso   1.000  H
  H63      1.0000 0.42030  0.85610  0.93500  Biso   1.000  H
  H64      1.0000 0.44260  0.92170  0.85490  Biso   1.000  H
  H65      1.0000 0.57870  0.79350  0.92680  Biso   1.000  H
  H66      1.0000 0.53310  0.79020  0.83190  Biso   1.000  H
  H67      1.0000 0.61260  0.86700  0.85690  Biso   1.000  H
  H68      1.0000 0.30500  0.87320  0.17330  Biso   1.000  H
  H69      1.0000 0.39780  0.89760  0.23330  Biso   1.000  H
  H70      1.0000 0.23530  0.01350  0.20510  Biso   1.000  H
  H71      1.0000 0.25040  0.95170  0.28860  Biso   1.000  H
  H72      1.0000 0.32640  0.03300  0.26900  Biso   1.000  H
  C1       1.0000 0.95610  0.83120  0.88010  Biso   1.000  C
  C2       1.0000 0.89520  0.82560  0.95340  Biso   1.000  C
  C3       1.0000 0.82450  0.88990  0.97060  Biso   1.000  C
  C4       1.0000 0.80830  0.96130  0.91300  Biso   1.000  C
  C5       1.0000 0.86850  0.96910  0.83990  Biso   1.000  C
  C6       1.0000 0.94130  0.90380  0.82440  Biso   1.000  C
  C7       1.0000 0.03310  0.76080  0.86320  Biso   1.000  C
  C8       1.0000 0.76120  0.88570  0.04950  Biso   1.000  C
  C9       1.0000 0.85630  0.04660  0.77920  Biso   1.000  C
  C10      1.0000 0.99360  0.33990  0.91670  Biso   1.000  C
  C11      1.0000 0.03090  0.24960  0.88860  Biso   1.000  C
  C12      1.0000 0.97280  0.60810  0.09430  Biso   1.000  C
  C13      1.0000 0.05660  0.66970  0.12210  Biso   1.000  C
  C14      1.0000 0.84730  0.57610  0.80590  Biso   1.000  C
  C15      1.0000 0.78500  0.51400  0.75700  Biso   1.000  C
  C16      1.0000 0.54390  0.16880  0.38010  Biso   1.000  C
  C17      1.0000 0.60480  0.17440  0.45340  Biso   1.000  C
  C18      1.0000 0.67550  0.11010  0.47060  Biso   1.000  C
  C19      1.0000 0.69170  0.03870  0.41300  Biso   1.000  C
  C20      1.0000 0.63150  0.03090  0.33990  Biso   1.000  C
  C21      1.0000 0.55870  0.09620  0.32440  Biso   1.000  C
  C22      1.0000 0.46690  0.23920  0.36320  Biso   1.000  C
  C23      1.0000 0.73880  0.11430  0.54950  Biso   1.000  C
  C24      1.0000 0.64370  0.95340  0.27920  Biso   1.000  C
  C25      1.0000 0.50640  0.66010  0.41670  Biso   1.000  C
  C26      1.0000 0.46910  0.75040  0.38860  Biso   1.000  C
  C27      1.0000 0.52720  0.39190  0.59430  Biso   1.000  C
  C28      1.0000 0.44340  0.33030  0.62210  Biso   1.000  C
  C29      1.0000 0.65270  0.42390  0.30590  Biso   1.000  C
  C30      1.0000 0.71500  0.48600  0.25700  Biso   1.000  C
  C31      1.0000 0.04390  0.33120  0.61990  Biso   1.000  C
  C32      1.0000 0.10480  0.32560  0.54660  Biso   1.000  C
  C33      1.0000 0.17550  0.38990  0.52940  Biso   1.000  C
  C34      1.0000 0.19170  0.46130  0.58700  Biso   1.000  C
  C35      1.0000 0.13150  0.46910  0.66010  Biso   1.000  C
  C36      1.0000 0.05870  0.40380  0.67560  Biso   1.000  C
  C37      1.0000 0.96690  0.26080  0.63680  Biso   1.000  C
  C38      1.0000 0.23880  0.38570  0.45050  Biso   1.000  C
  C39      1.0000 0.14370  0.54660  0.72080  Biso   1.000  C
  C40      1.0000 0.00640  0.83990  0.58330  Biso   1.000  C
  C41      1.0000 0.96910  0.74960  0.61140  Biso   1.000  C
  C42      1.0000 0.02720  0.10810  0.40570  Biso   1.000  C
  C43      1.0000 0.94340  0.16970  0.37790  Biso   1.000  C
  C44      1.0000 0.15270  0.07610  0.69410  Biso   1.000  C
  C45      1.0000 0.21500  0.01400  0.74300  Biso   1.000  C
  C46      1.0000 0.45610  0.66880  0.11990  Biso   1.000  C
  C47      1.0000 0.39520  0.67440  0.04660  Biso   1.000  C
  C48      1.0000 0.32450  0.61010  0.02940  Biso   1.000  C
  C49      1.0000 0.30830  0.53870  0.08700  Biso   1.000  C
  C50      1.0000 0.36850  0.53090  0.16010  Biso   1.000  C
  C51      1.0000 0.44130  0.59620  0.17560  Biso   1.000  C
  C52      1.0000 0.53310  0.73920  0.13680  Biso   1.000  C
  C53      1.0000 0.26120  0.61430  0.95050  Biso   1.000  C
  C54      1.0000 0.35630  0.45340  0.22080  Biso   1.000  C
  C55      1.0000 0.49360  0.16010  0.08330  Biso   1.000  C
  C56      1.0000 0.53090  0.25040  0.11140  Biso   1.000  C
  C57      1.0000 0.47280  0.89190  0.90570  Biso   1.000  C
  C58      1.0000 0.55660  0.83030  0.87790  Biso   1.000  C
  C59      1.0000 0.34730  0.92390  0.19410  Biso   1.000  C
  C60      1.0000 0.28500  0.98600  0.24300  Biso   1.000  C
  N1       1.0000 0.31770  0.80760  0.67360  Biso   1.000  N
  N2       1.0000 0.18230  0.19240  0.17360  Biso   1.000  N
  N3       1.0000 0.68230  0.30760  0.82640  Biso   1.000  N
  N4       1.0000 0.81770  0.69240  0.32640  Biso   1.000  N
  O1       1.0000 0.09320  0.77590  0.80260  Biso   1.000  O
  O2       1.0000 0.03430  0.69270  0.91290  Biso   1.000  O
  O3       1.0000 0.77670  0.81580  0.09770  Biso   1.000  O
  O4       1.0000 0.69940  0.94580  0.06470  Biso   1.000  O
  O5       1.0000 0.78080  0.09760  0.78440  Biso   1.000  O
  O6       1.0000 0.92610  0.05930  0.72500  Biso   1.000  O
  O7       1.0000 0.32570  0.78270  0.75020  Biso   1.000  O
  O8       1.0000 0.24220  0.78510  0.63250  Biso   1.000  O
  O9       1.0000 0.38510  0.85190  0.63890  Biso   1.000  O
  O10      1.0000 0.07120  0.41070  0.90800  Biso   1.000  O
  O11      1.0000 0.01240  0.53950  0.03600  Biso   1.000  O
  O12      1.0000 0.89890  0.53710  0.87920  Biso   1.000  O
  O13      1.0000 0.40680  0.22410  0.30260  Biso   1.000  O
  O14      1.0000 0.46570  0.30730  0.41290  Biso   1.000  O
  O15      1.0000 0.72330  0.18420  0.59770  Biso   1.000  O
  O16      1.0000 0.80060  0.05420  0.56470  Biso   1.000  O
  O17      1.0000 0.71920  0.90240  0.28440  Biso   1.000  O
  O18      1.0000 0.57390  0.94070  0.22500  Biso   1.000  O
  O19      1.0000 0.17430  0.21730  0.25020  Biso   1.000  O
  O20      1.0000 0.25780  0.21490  0.13250  Biso   1.000  O
  O21      1.0000 0.11490  0.14810  0.13890  Biso   1.000  O
  O22      1.0000 0.42880  0.58930  0.40800  Biso   1.000  O
  O23      1.0000 0.48760  0.46050  0.53600  Biso   1.000  O
  O24      1.0000 0.60110  0.46290  0.37920  Biso   1.000  O
  O25      1.0000 0.90680  0.27590  0.69740  Biso   1.000  O
  O26      1.0000 0.96570  0.19270  0.58710  Biso   1.000  O
  O27      1.0000 0.22330  0.31580  0.40230  Biso   1.000  O
  O28      1.0000 0.30060  0.44580  0.43530  Biso   1.000  O
  O29      1.0000 0.21920  0.59760  0.71560  Biso   1.000  O
  O30      1.0000 0.07390  0.55930  0.77500  Biso   1.000  O
  O31      1.0000 0.67430  0.28270  0.74980  Biso   1.000  O
  O32      1.0000 0.75780  0.28510  0.86750  Biso   1.000  O
  O33      1.0000 0.61490  0.35190  0.86110  Biso   1.000  O
  O34      1.0000 0.92880  0.91070  0.59200  Biso   1.000  O
  O35      1.0000 0.98760  0.03950  0.46400  Biso   1.000  O
  O36      1.0000 0.10110  0.03710  0.62080  Biso   1.000  O
  O37      1.0000 0.59320  0.72410  0.19740  Biso   1.000  O
  O38      1.0000 0.53430  0.80730  0.08710  Biso   1.000  O
  O39      1.0000 0.27670  0.68420  0.90230  Biso   1.000  O
  O40      1.0000 0.19940  0.55420  0.93530  Biso   1.000  O
  O41      1.0000 0.28080  0.40240  0.21560  Biso   1.000  O
  O42      1.0000 0.42610  0.44070  0.27500  Biso   1.000  O
  O43      1.0000 0.82570  0.71730  0.24980  Biso   1.000  O
  O44      1.0000 0.74220  0.71490  0.36750  Biso   1.000  O
  O45      1.0000 0.88510  0.64810  0.36110  Biso   1.000  O
  O46      1.0000 0.57120  0.08930  0.09200  Biso   1.000  O
  O47      1.0000 0.51240  0.96050  0.96400  Biso   1.000  O
  O48      1.0000 0.39890  0.96290  0.12080  Biso   1.000  O
