data_image0
_cell_length_a       7.458
_cell_length_b       16.239
_cell_length_c       16.239
_cell_angle_alpha    120
_cell_angle_beta     90
_cell_angle_gamma    90

_symmetry_space_group_name_H-M    P 1
_symmetry_int_tables_number       1

loop_
  _symmetry_equiv_pos_as_xyz
  'x, y, z'

loop_
  _atom_site_label
  _atom_site_occupancy
  _atom_site_fract_x
  _atom_site_fract_y
  _atom_site_fract_z
  _atom_site_thermal_displace_type
  _atom_site_B_iso_or_equiv
  _atom_site_type_symbol
  Y1       1.0000 0.12550  0.66667  0.33334  Biso   1.000  Y
  Y2       1.0000 0.62550  0.33333  0.66666  Biso   1.000  Y
  Y3       1.0000 0.62550  0.66667  0.33334  Biso   1.000  Y
  Y4       1.0000 0.12550  0.33333  0.66666  Biso   1.000  Y
  H1       1.0000 0.62520  0.86000  0.56630  Biso   1.000  H
  H2       1.0000 0.62520  0.70630  0.14000  Biso   1.000  H
  H3       1.0000 0.62520  0.43370  0.29370  Biso   1.000  H
  H4       1.0000 0.12520  0.14000  0.43370  Biso   1.000  H
  H5       1.0000 0.12520  0.29370  0.86000  Biso   1.000  H
  H6       1.0000 0.12520  0.56630  0.70630  Biso   1.000  H
  H7       1.0000 0.12520  0.70630  0.56630  Biso   1.000  H
  H8       1.0000 0.12520  0.43370  0.14000  Biso   1.000  H
  H9       1.0000 0.12520  0.86000  0.29370  Biso   1.000  H
  H10      1.0000 0.62520  0.29370  0.43370  Biso   1.000  H
  H11      1.0000 0.62520  0.56630  0.86000  Biso   1.000  H
  H12      1.0000 0.62520  0.14000  0.70630  Biso   1.000  H
  H13      1.0000 0.05630  1.00000  0.55360  Biso   1.000  H
  H14      1.0000 0.05630  0.55360  0.00000  Biso   1.000  H
  H15      1.0000 0.05630  0.44640  0.44640  Biso   1.000  H
  H16      1.0000 0.55630  1.00000  0.44640  Biso   1.000  H
  H17      1.0000 0.55630  0.44640  0.00000  Biso   1.000  H
  H18      1.0000 0.55630  0.55360  0.55360  Biso   1.000  H
  C1       1.0000 0.68580  0.91800  0.58420  Biso   1.000  C
  C2       1.0000 0.85560  0.91550  0.54860  Biso   1.000  C
  C3       1.0000 0.93860  0.82700  0.48530  Biso   1.000  C
  C4       1.0000 0.68580  0.66620  0.08200  Biso   1.000  C
  C5       1.0000 0.85560  0.63310  0.08450  Biso   1.000  C
  C6       1.0000 0.93860  0.65830  0.17300  Biso   1.000  C
  C7       1.0000 0.68580  0.41580  0.33380  Biso   1.000  C
  C8       1.0000 0.85560  0.45140  0.36690  Biso   1.000  C
  C9       1.0000 0.93860  0.51470  0.34170  Biso   1.000  C
  C10      1.0000 0.18580  0.08200  0.41580  Biso   1.000  C
  C11      1.0000 0.35560  0.08450  0.45140  Biso   1.000  C
  C12      1.0000 0.43860  0.17300  0.51470  Biso   1.000  C
  C13      1.0000 0.18580  0.33380  0.91800  Biso   1.000  C
  C14      1.0000 0.35560  0.36690  0.91550  Biso   1.000  C
  C15      1.0000 0.43860  0.34170  0.82700  Biso   1.000  C
  C16      1.0000 0.18580  0.58420  0.66620  Biso   1.000  C
  C17      1.0000 0.35560  0.54860  0.63310  Biso   1.000  C
  C18      1.0000 0.43860  0.48530  0.65830  Biso   1.000  C
  C19      1.0000 0.18580  0.66620  0.58420  Biso   1.000  C
  C20      1.0000 0.35560  0.63310  0.54860  Biso   1.000  C
  C21      1.0000 0.43860  0.65830  0.48530  Biso   1.000  C
  C22      1.0000 0.18580  0.41580  0.08200  Biso   1.000  C
  C23      1.0000 0.35560  0.45140  0.08450  Biso   1.000  C
  C24      1.0000 0.43860  0.51470  0.17300  Biso   1.000  C
  C25      1.0000 0.18580  0.91800  0.33380  Biso   1.000  C
  C26      1.0000 0.35560  0.91550  0.36690  Biso   1.000  C
  C27      1.0000 0.43860  0.82700  0.34170  Biso   1.000  C
  C28      1.0000 0.68580  0.33380  0.41580  Biso   1.000  C
  C29      1.0000 0.85560  0.36690  0.45140  Biso   1.000  C
  C30      1.0000 0.93860  0.34170  0.51470  Biso   1.000  C
  C31      1.0000 0.68580  0.58420  0.91800  Biso   1.000  C
  C32      1.0000 0.85560  0.54860  0.91550  Biso   1.000  C
  C33      1.0000 0.93860  0.48530  0.82700  Biso   1.000  C
  C34      1.0000 0.68580  0.08200  0.66620  Biso   1.000  C
  C35      1.0000 0.85560  0.08450  0.63310  Biso   1.000  C
  C36      1.0000 0.93860  0.17300  0.65830  Biso   1.000  C
  C37      1.0000 0.93810  1.00000  0.57550  Biso   1.000  C
  C38      1.0000 0.93810  0.57550  0.00000  Biso   1.000  C
  C39      1.0000 0.93810  0.42450  0.42450  Biso   1.000  C
  C40      1.0000 0.43810  1.00000  0.42450  Biso   1.000  C
  C41      1.0000 0.43810  0.42450  0.00000  Biso   1.000  C
  C42      1.0000 0.43810  0.57550  0.57550  Biso   1.000  C
  N1       1.0000 0.60600  1.00000  0.64280  Biso   1.000  N
  N2       1.0000 0.60600  0.64280  0.00000  Biso   1.000  N
  N3       1.0000 0.60600  0.35720  0.35720  Biso   1.000  N
  N4       1.0000 0.10600  0.00000  0.35720  Biso   1.000  N
  N5       1.0000 0.10600  0.35720  0.00000  Biso   1.000  N
  N6       1.0000 0.10600  0.64280  0.64280  Biso   1.000  N
  O1       1.0000 0.89440  0.74460  0.44620  Biso   1.000  O
  O2       1.0000 0.08750  0.82520  0.45270  Biso   1.000  O
  O3       1.0000 0.89440  0.70160  0.25540  Biso   1.000  O
  O4       1.0000 0.08750  0.62750  0.17480  Biso   1.000  O
  O5       1.0000 0.89440  0.55380  0.29840  Biso   1.000  O
  O6       1.0000 0.08750  0.54730  0.37250  Biso   1.000  O
  O7       1.0000 0.39440  0.25540  0.55380  Biso   1.000  O
  O8       1.0000 0.58750  0.17480  0.54730  Biso   1.000  O
  O9       1.0000 0.39440  0.29840  0.74460  Biso   1.000  O
  O10      1.0000 0.58750  0.37250  0.82520  Biso   1.000  O
  O11      1.0000 0.39440  0.44620  0.70160  Biso   1.000  O
  O12      1.0000 0.58750  0.45270  0.62750  Biso   1.000  O
  O13      1.0000 0.39440  0.70160  0.44620  Biso   1.000  O
  O14      1.0000 0.58750  0.62750  0.45270  Biso   1.000  O
  O15      1.0000 0.39440  0.55380  0.25540  Biso   1.000  O
  O16      1.0000 0.58750  0.54730  0.17480  Biso   1.000  O
  O17      1.0000 0.39440  0.74460  0.29840  Biso   1.000  O
  O18      1.0000 0.58750  0.82520  0.37250  Biso   1.000  O
  O19      1.0000 0.89440  0.29840  0.55380  Biso   1.000  O
  O20      1.0000 0.08750  0.37250  0.54730  Biso   1.000  O
  O21      1.0000 0.89440  0.44620  0.74460  Biso   1.000  O
  O22      1.0000 0.08750  0.45270  0.82520  Biso   1.000  O
  O23      1.0000 0.89440  0.25540  0.70160  Biso   1.000  O
  O24      1.0000 0.08750  0.17480  0.62750  Biso   1.000  O
