data_image0
_cell_length_a       6.8627
_cell_length_b       17.4948
_cell_length_c       18.0665
_cell_angle_alpha    117.717
_cell_angle_beta     98.1245
_cell_angle_gamma    95.7614

_symmetry_space_group_name_H-M    P 1
_symmetry_int_tables_number       1

loop_
  _symmetry_equiv_pos_as_xyz
  'x, y, z'

loop_
  _atom_site_label
  _atom_site_occupancy
  _atom_site_fract_x
  _atom_site_fract_y
  _atom_site_fract_z
  _atom_site_thermal_displace_type
  _atom_site_B_iso_or_equiv
  _atom_site_type_symbol
  Ba1      1.0000 0.79974  0.98282  0.59156  Biso   1.000  Ba
  Ba2      1.0000 0.20818  0.39126  0.40844  Biso   1.000  Ba
  Zn1      1.0000 0.28873  0.11108  0.73834  Biso   1.000  Zn
  Zn2      1.0000 0.25978  0.07987  0.53212  Biso   1.000  Zn
  Zn3      1.0000 0.55039  0.37274  0.26166  Biso   1.000  Zn
  Zn4      1.0000 0.72766  0.54775  0.46788  Biso   1.000  Zn
  H1       1.0000 0.58660  0.22290  0.82560  Biso   1.000  H
  H2       1.0000 0.65100  0.14230  0.78520  Biso   1.000  H
  H3       1.0000 0.78760  0.80190  0.59920  Biso   1.000  H
  H4       1.0000 0.69160  0.77210  0.51240  Biso   1.000  H
  H5       1.0000 0.71810  0.05970  0.87240  Biso   1.000  H
  H6       1.0000 0.50510  0.14430  0.10780  Biso   1.000  H
  H7       1.0000 0.37410  0.14070  0.03520  Biso   1.000  H
  H8       1.0000 0.34790  0.07420  0.07020  Biso   1.000  H
  H9       1.0000 0.08940  0.76330  0.47900  Biso   1.000  H
  H10      1.0000 0.31300  0.58220  0.29620  Biso   1.000  H
  H11      1.0000 0.68300  0.60350  0.29520  Biso   1.000  H
  H12      1.0000 0.74670  0.59870  0.21340  Biso   1.000  H
  H13      1.0000 0.53490  0.54920  0.20580  Biso   1.000  H
  H14      1.0000 0.29370  0.62750  0.16440  Biso   1.000  H
  H15      1.0000 0.48570  0.62950  0.12700  Biso   1.000  H
  H16      1.0000 0.40170  0.71600  0.17400  Biso   1.000  H
  H17      1.0000 0.67210  0.80720  0.28560  Biso   1.000  H
  H18      1.0000 0.80120  0.73830  0.23700  Biso   1.000  H
  H19      1.0000 0.80680  0.77030  0.33420  Biso   1.000  H
  H20      1.0000 0.48670  0.83750  0.37040  Biso   1.000  H
  H21      1.0000 0.48300  0.79390  0.59900  Biso   1.000  H
  H22      1.0000 0.19370  0.63210  0.66540  Biso   1.000  H
  H23      1.0000 0.10920  0.88060  0.75820  Biso   1.000  H
  H24      1.0000 0.81000  0.63160  0.67760  Biso   1.000  H
  H25      1.0000 0.77560  0.64550  0.76660  Biso   1.000  H
  H26      1.0000 0.96020  0.60620  0.73260  Biso   1.000  H
  H27      1.0000 0.20910  0.70450  0.84400  Biso   1.000  H
  H28      1.0000 0.06360  0.75650  0.89980  Biso   1.000  H
  H29      1.0000 0.23630  0.80660  0.88140  Biso   1.000  H
  H30      1.0000 0.92920  0.86180  0.83960  Biso   1.000  H
  H31      1.0000 0.77150  0.78840  0.83640  Biso   1.000  H
  H32      1.0000 0.77290  0.79820  0.75460  Biso   1.000  H
  H33      1.0000 0.76100  0.39730  0.17440  Biso   1.000  H
  H34      1.0000 0.86580  0.35710  0.21480  Biso   1.000  H
  H35      1.0000 0.18840  0.20270  0.40080  Biso   1.000  H
  H36      1.0000 0.17920  0.25970  0.48760  Biso   1.000  H
  H37      1.0000 0.84570  0.18730  0.12760  Biso   1.000  H
  H38      1.0000 0.39730  0.03650  0.89220  Biso   1.000  H
  H39      1.0000 0.33890  0.10550  0.96480  Biso   1.000  H
  H40      1.0000 0.27770  0.00400  0.92980  Biso   1.000  H
  H41      1.0000 0.61040  0.28430  0.52100  Biso   1.000  H
  H42      1.0000 0.01680  0.28600  0.70380  Biso   1.000  H
  H43      1.0000 0.38780  0.30830  0.70480  Biso   1.000  H
  H44      1.0000 0.53330  0.38530  0.78660  Biso   1.000  H
  H45      1.0000 0.32910  0.34340  0.79420  Biso   1.000  H
  H46      1.0000 0.12930  0.46310  0.83560  Biso   1.000  H
  H47      1.0000 0.35870  0.50250  0.87300  Biso   1.000  H
  H48      1.0000 0.22770  0.54200  0.82600  Biso   1.000  H
  H49      1.0000 0.38650  0.52160  0.71440  Biso   1.000  H
  H50      1.0000 0.56420  0.50130  0.76300  Biso   1.000  H
  H51      1.0000 0.47260  0.43610  0.66580  Biso   1.000  H
  H52      1.0000 0.11630  0.46710  0.62960  Biso   1.000  H
  H53      1.0000 0.88400  0.19490  0.40100  Biso   1.000  H
  H54      1.0000 0.52830  0.96670  0.33460  Biso   1.000  H
  H55      1.0000 0.35100  0.12240  0.24180  Biso   1.000  H
  H56      1.0000 0.13240  0.95400  0.32240  Biso   1.000  H
  H57      1.0000 0.00900  0.87890  0.23340  Biso   1.000  H
  H58      1.0000 0.22760  0.87360  0.26740  Biso   1.000  H
  H59      1.0000 0.36510  0.86050  0.15600  Biso   1.000  H
  H60      1.0000 0.16380  0.85670  0.10020  Biso   1.000  H
  H61      1.0000 0.35490  0.92520  0.11860  Biso   1.000  H
  H62      1.0000 0.08960  0.02220  0.16040  Biso   1.000  H
  H63      1.0000 0.93510  0.95200  0.16360  Biso   1.000  H
  H64      1.0000 0.01830  0.04360  0.24540  Biso   1.000  H
  H65      1.0000 0.19510  0.25620  0.00000  Biso   1.000  H
  C1       1.0000 0.01702  0.13782  0.83924  Biso   1.000  C
  C2       1.0000 0.96205  0.15625  0.92310  Biso   1.000  C
  C3       1.0000 0.79841  0.10331  0.92402  Biso   1.000  C
  C4       1.0000 0.65610  0.99410  0.03220  Biso   1.000  C
  C5       1.0000 0.44320  0.11120  0.06100  Biso   1.000  C
  C6       1.0000 0.24579  0.90649  0.48258  Biso   1.000  C
  C7       1.0000 0.28107  0.81577  0.43254  Biso   1.000  C
  C8       1.0000 0.17272  0.74922  0.44004  Biso   1.000  C
  C9       1.0000 0.18645  0.66235  0.39050  Biso   1.000  C
  C10      1.0000 0.06425  0.59225  0.40110  Biso   1.000  C
  C11      1.0000 0.30781  0.64091  0.33082  Biso   1.000  C
  C12      1.0000 0.42201  0.70531  0.32162  Biso   1.000  C
  C13      1.0000 0.54980  0.68190  0.25620  Biso   1.000  C
  C14      1.0000 0.63650  0.60090  0.24120  Biso   1.000  C
  C15      1.0000 0.42120  0.66190  0.17300  Biso   1.000  C
  C16      1.0000 0.72340  0.75620  0.28040  Biso   1.000  C
  C17      1.0000 0.40909  0.79319  0.37418  Biso   1.000  C
  C18      1.0000 0.34370  0.93730  0.68300  Biso   1.000  C
  C19      1.0000 0.30145  0.84895  0.67830  Biso   1.000  C
  C20      1.0000 0.39370  0.78330  0.62880  Biso   1.000  C
  C21      1.0000 0.35460  0.70040  0.62280  Biso   1.000  C
  C22      1.0000 0.44584  0.62594  0.56608  Biso   1.000  C
  C23      1.0000 0.22152  0.68722  0.66964  Biso   1.000  C
  C24      1.0000 0.13024  0.75284  0.72168  Biso   1.000  C
  C25      1.0000 0.17070  0.83530  0.72480  Biso   1.000  C
  C26      1.0000 0.00030  0.73930  0.77780  Biso   1.000  C
  C27      1.0000 0.87500  0.64720  0.73480  Biso   1.000  C
  C28      1.0000 0.14030  0.75300  0.85820  Biso   1.000  C
  C29      1.0000 0.85510  0.80280  0.80460  Biso   1.000  C
  C30      1.0000 0.17778  0.29858  0.16076  Biso   1.000  C
  C31      1.0000 0.03895  0.23315  0.07690  Biso   1.000  C
  C32      1.0000 0.87439  0.17929  0.07598  Biso   1.000  C
  C33      1.0000 0.62390  0.96190  0.96780  Biso   1.000  C
  C34      1.0000 0.38220  0.05020  0.93900  Biso   1.000  C
  C35      1.0000 0.76321  0.42391  0.51742  Biso   1.000  C
  C36      1.0000 0.84853  0.38323  0.56746  Biso   1.000  C
  C37      1.0000 0.73268  0.30918  0.55996  Biso   1.000  C
  C38      1.0000 0.79595  0.27185  0.60950  Biso   1.000  C
  C39      1.0000 0.66315  0.19115  0.59890  Biso   1.000  C
  C40      1.0000 0.97699  0.31009  0.66918  Biso   1.000  C
  C41      1.0000 0.10039  0.38369  0.67838  Biso   1.000  C
  C42      1.0000 0.29360  0.42570  0.74380  Biso   1.000  C
  C43      1.0000 0.39530  0.35970  0.75880  Biso   1.000  C
  C44      1.0000 0.24820  0.48890  0.82700  Biso   1.000  C
  C45      1.0000 0.44300  0.47580  0.71960  Biso   1.000  C
  C46      1.0000 0.03491  0.41901  0.62582  Biso   1.000  C
  C47      1.0000 0.66070  0.25430  0.31700  Biso   1.000  C
  C48      1.0000 0.62315  0.17065  0.32170  Biso   1.000  C
  C49      1.0000 0.76490  0.15450  0.37120  Biso   1.000  C
  C50      1.0000 0.73180  0.07760  0.37720  Biso   1.000  C
  C51      1.0000 0.87976  0.05986  0.43392  Biso   1.000  C
  C52      1.0000 0.55188  0.01758  0.33036  Biso   1.000  C
  C53      1.0000 0.40856  0.03116  0.27832  Biso   1.000  C
  C54      1.0000 0.44590  0.11050  0.27520  Biso   1.000  C
  C55      1.0000 0.22250  0.96150  0.22220  Biso   1.000  C
  C56      1.0000 0.14020  0.91240  0.26520  Biso   1.000  C
  C57      1.0000 0.28210  0.89480  0.14180  Biso   1.000  C
  C58      1.0000 0.05050  0.99820  0.19540  Biso   1.000  C
  C59      1.0000 0.08400  0.22110  0.00000  Biso   1.000  C
  C60      1.0000 0.75170  0.11380  0.00000  Biso   1.000  C
  C61      1.0000 0.57510  0.05320  0.00000  Biso   1.000  C
  O1       1.0000 0.89662  0.08812  0.77104  Biso   1.000  O
  O2       1.0000 0.19310  0.17390  0.84380  Biso   1.000  O
  O3       1.0000 0.57151  0.17471  0.77762  Biso   1.000  O
  O4       1.0000 0.15644  0.11414  0.63802  Biso   1.000  O
  O5       1.0000 0.36890  0.97040  0.48720  Biso   1.000  O
  O6       1.0000 0.10090  0.91750  0.51720  Biso   1.000  O
  O7       1.0000 0.09534  0.51524  0.36528  Biso   1.000  O
  O8       1.0000 0.93071  0.61741  0.44422  Biso   1.000  O
  O9       1.0000 0.79550  0.80770  0.55380  Biso   1.000  O
  O10      1.0000 0.48773  0.95703  0.65726  Biso   1.000  O
  O11      1.0000 0.22226  0.98966  0.71512  Biso   1.000  O
  O12      1.0000 0.60180  0.64550  0.54200  Biso   1.000  O
  O13      1.0000 0.37045  0.54995  0.54590  Biso   1.000  O
  O14      1.0000 0.12558  0.31708  0.22896  Biso   1.000  O
  O15      1.0000 0.34930  0.33010  0.15620  Biso   1.000  O
  O16      1.0000 0.79389  0.39709  0.22238  Biso   1.000  O
  O17      1.0000 0.51842  0.47612  0.36198  Biso   1.000  O
  O18      1.0000 0.88170  0.48320  0.51280  Biso   1.000  O
  O19      1.0000 0.58370  0.40030  0.48280  Biso   1.000  O
  O20      1.0000 0.73006  0.14996  0.63472  Biso   1.000  O
  O21      1.0000 0.48649  0.17319  0.55578  Biso   1.000  O
  O22      1.0000 0.24170  0.25390  0.44620  Biso   1.000  O
  O23      1.0000 0.83047  0.29977  0.34274  Biso   1.000  O
  O24      1.0000 0.50714  0.27454  0.28488  Biso   1.000  O
  O25      1.0000 0.05980  0.10350  0.45800  Biso   1.000  O
  O26      1.0000 0.82455  0.00405  0.45410  Biso   1.000  O
