data_image0
_cell_length_a       9.55
_cell_length_b       13.3
_cell_length_c       13.377
_cell_angle_alpha    61.82
_cell_angle_beta     69.88
_cell_angle_gamma    76.1

_symmetry_space_group_name_H-M    P 1
_symmetry_int_tables_number       1

loop_
  _symmetry_equiv_pos_as_xyz
  'x, y, z'

loop_
  _atom_site_label
  _atom_site_occupancy
  _atom_site_fract_x
  _atom_site_fract_y
  _atom_site_fract_z
  _atom_site_thermal_displace_type
  _atom_site_B_iso_or_equiv
  _atom_site_type_symbol
  Cd1      1.0000 0.37310  0.89267  0.09513  Biso   1.000  Cd
  Cd2      1.0000 0.62690  0.10733  0.90487  Biso   1.000  Cd
  Cd3      1.0000 0.00000  0.00000  0.00000  Biso   1.000  Cd
  H1       1.0000 0.37870  0.61330  0.95110  Biso   1.000  H
  H2       1.0000 0.43500  0.71890  0.83210  Biso   1.000  H
  H3       1.0000 0.19490  0.81620  0.86080  Biso   1.000  H
  H4       1.0000 0.14220  0.71120  0.98160  Biso   1.000  H
  H5       1.0000 0.43650  0.73150  0.48620  Biso   1.000  H
  H6       1.0000 0.39170  0.62480  0.48780  Biso   1.000  H
  H7       1.0000 0.19540  0.81860  0.48680  Biso   1.000  H
  H8       1.0000 0.14980  0.71180  0.48930  Biso   1.000  H
  H9       1.0000 0.09970  0.35170  0.96590  Biso   1.000  H
  H10      1.0000 0.10830  0.35230  0.84610  Biso   1.000  H
  H11      1.0000 0.36450  0.29160  0.82150  Biso   1.000  H
  H12      1.0000 0.35160  0.28690  0.94350  Biso   1.000  H
  H13      1.0000 0.71860  0.91950  0.24060  Biso   1.000  H
  H14      1.0000 0.85730  0.75070  0.27010  Biso   1.000  H
  H15      1.0000 0.86770  0.74320  0.38790  Biso   1.000  H
  H16      1.0000 0.71150  0.74550  0.37220  Biso   1.000  H
  H17      1.0000 0.70900  0.00960  0.33980  Biso   1.000  H
  H18      1.0000 0.62860  0.89650  0.41260  Biso   1.000  H
  H19      1.0000 0.78440  0.89940  0.42570  Biso   1.000  H
  H20      1.0000 0.62130  0.38670  0.04890  Biso   1.000  H
  H21      1.0000 0.56500  0.28110  0.16790  Biso   1.000  H
  H22      1.0000 0.80510  0.18380  0.13920  Biso   1.000  H
  H23      1.0000 0.85780  0.28880  0.01840  Biso   1.000  H
  H24      1.0000 0.56350  0.26850  0.51380  Biso   1.000  H
  H25      1.0000 0.60830  0.37520  0.51220  Biso   1.000  H
  H26      1.0000 0.80460  0.18140  0.51320  Biso   1.000  H
  H27      1.0000 0.85020  0.28820  0.51070  Biso   1.000  H
  H28      1.0000 0.90030  0.64830  0.03410  Biso   1.000  H
  H29      1.0000 0.89170  0.64770  0.15390  Biso   1.000  H
  H30      1.0000 0.63550  0.70840  0.17850  Biso   1.000  H
  H31      1.0000 0.64840  0.71310  0.05650  Biso   1.000  H
  H32      1.0000 0.28140  0.08050  0.75940  Biso   1.000  H
  H33      1.0000 0.14270  0.24930  0.72990  Biso   1.000  H
  H34      1.0000 0.13230  0.25680  0.61210  Biso   1.000  H
  H35      1.0000 0.28850  0.25450  0.62780  Biso   1.000  H
  H36      1.0000 0.29100  0.99040  0.66020  Biso   1.000  H
  H37      1.0000 0.37140  0.10350  0.58740  Biso   1.000  H
  H38      1.0000 0.21560  0.10060  0.57430  Biso   1.000  H
  C1       1.0000 0.23860  0.52730  0.88840  Biso   1.000  C
  C2       1.0000 0.33250  0.68790  0.70100  Biso   1.000  C
  C3       1.0000 0.25410  0.52630  0.70220  Biso   1.000  C
  C4       1.0000 0.34850  0.67670  0.88440  Biso   1.000  C
  C5       1.0000 0.22750  0.75400  0.92710  Biso   1.000  C
  C6       1.0000 0.28090  0.80290  0.98760  Biso   1.000  C
  C7       1.0000 0.35470  0.68530  0.51400  Biso   1.000  C
  C8       1.0000 0.23180  0.75810  0.46070  Biso   1.000  C
  C9       1.0000 0.27590  0.81030  0.33060  Biso   1.000  C
  C10      1.0000 0.16460  0.36240  0.88830  Biso   1.000  C
  C11      1.0000 0.29810  0.27660  0.89950  Biso   1.000  C
  C12      1.0000 0.26180  0.15250  0.96020  Biso   1.000  C
  C13      1.0000 0.79200  0.89580  0.28570  Biso   1.000  C
  C14      1.0000 0.80800  0.77400  0.33300  Biso   1.000  C
  C15      1.0000 0.72400  0.92700  0.37200  Biso   1.000  C
  C16      1.0000 0.76140  0.47270  0.11160  Biso   1.000  C
  C17      1.0000 0.66750  0.31210  0.29900  Biso   1.000  C
  C18      1.0000 0.74590  0.47370  0.29780  Biso   1.000  C
  C19      1.0000 0.65150  0.32330  0.11560  Biso   1.000  C
  C20      1.0000 0.77250  0.24600  0.07290  Biso   1.000  C
  C21      1.0000 0.71910  0.19710  0.01240  Biso   1.000  C
  C22      1.0000 0.64530  0.31470  0.48600  Biso   1.000  C
  C23      1.0000 0.76820  0.24190  0.53930  Biso   1.000  C
  C24      1.0000 0.72410  0.18970  0.66940  Biso   1.000  C
  C25      1.0000 0.83540  0.63760  0.11170  Biso   1.000  C
  C26      1.0000 0.70190  0.72340  0.10050  Biso   1.000  C
  C27      1.0000 0.73820  0.84750  0.03980  Biso   1.000  C
  C28      1.0000 0.20800  0.10420  0.71430  Biso   1.000  C
  C29      1.0000 0.19200  0.22600  0.66700  Biso   1.000  C
  C30      1.0000 0.27600  0.07300  0.62800  Biso   1.000  C
  N1       1.0000 0.21530  0.47950  0.82350  Biso   1.000  N
  N2       1.0000 0.30010  0.63090  0.82120  Biso   1.000  N
  N3       1.0000 0.30790  0.63340  0.64400  Biso   1.000  N
  N4       1.0000 0.78470  0.52050  0.17650  Biso   1.000  N
  N5       1.0000 0.69990  0.36910  0.17880  Biso   1.000  N
  N6       1.0000 0.69210  0.36660  0.35600  Biso   1.000  N
  O1       1.0000 0.20920  0.48220  0.99280  Biso   1.000  O
  O2       1.0000 0.38360  0.77940  0.64500  Biso   1.000  O
  O3       1.0000 0.24110  0.47910  0.64870  Biso   1.000  O
  O4       1.0000 0.40840  0.77460  0.00190  Biso   1.000  O
  O5       1.0000 0.40660  0.78960  0.27670  Biso   1.000  O
  O6       1.0000 0.18490  0.87070  0.27320  Biso   1.000  O
  O7       1.0000 0.37600  0.07890  0.98040  Biso   1.000  O
  O8       1.0000 0.13760  0.13130  0.98470  Biso   1.000  O
  O9       1.0000 0.92430  0.94730  0.19970  Biso   1.000  O
  O10      1.0000 0.19580  0.87100  0.02530  Biso   1.000  O
  O11      1.0000 0.79080  0.51780  0.00720  Biso   1.000  O
  O12      1.0000 0.61640  0.22060  0.35500  Biso   1.000  O
  O13      1.0000 0.75890  0.52090  0.35130  Biso   1.000  O
  O14      1.0000 0.59160  0.22540  0.99810  Biso   1.000  O
  O15      1.0000 0.59340  0.21040  0.72330  Biso   1.000  O
  O16      1.0000 0.81510  0.12930  0.72680  Biso   1.000  O
  O17      1.0000 0.62400  0.92110  0.01960  Biso   1.000  O
  O18      1.0000 0.86240  0.86870  0.01530  Biso   1.000  O
  O19      1.0000 0.07570  0.05270  0.80030  Biso   1.000  O
  O20      1.0000 0.80420  0.12900  0.97470  Biso   1.000  O
