data_image0
_cell_length_a       13.921
_cell_length_b       16.5104
_cell_length_c       18.994
_cell_angle_alpha    113.254
_cell_angle_beta     90
_cell_angle_gamma    114.934

_symmetry_space_group_name_H-M    P 1
_symmetry_int_tables_number       1

loop_
  _symmetry_equiv_pos_as_xyz
  'x, y, z'

loop_
  _atom_site_label
  _atom_site_occupancy
  _atom_site_fract_x
  _atom_site_fract_y
  _atom_site_fract_z
  _atom_site_thermal_displace_type
  _atom_site_B_iso_or_equiv
  _atom_site_type_symbol
  Zn1      1.0000 0.08095  0.46952  0.89768  Biso   1.000  Zn
  Zn2      1.0000 0.55865  0.43474  0.16064  Biso   1.000  Zn
  Zn3      1.0000 0.61143  0.53048  0.60232  Biso   1.000  Zn
  Zn4      1.0000 0.12391  0.56526  0.33936  Biso   1.000  Zn
  Zn5      1.0000 0.91905  0.53048  0.10232  Biso   1.000  Zn
  Zn6      1.0000 0.44135  0.56526  0.83936  Biso   1.000  Zn
  Zn7      1.0000 0.38857  0.46952  0.39768  Biso   1.000  Zn
  Zn8      1.0000 0.87609  0.43474  0.66064  Biso   1.000  Zn
  H1       1.0000 0.48610  0.76100  0.71650  Biso   1.000  H
  H2       1.0000 0.36310  0.82480  0.73640  Biso   1.000  H
  H3       1.0000 0.18230  0.72040  0.71310  Biso   1.000  H
  H4       1.0000 0.15510  0.26260  0.69600  Biso   1.000  H
  H5       1.0000 0.16340  0.17520  0.56720  Biso   1.000  H
  H6       1.0000 0.22060  0.25640  0.48900  Biso   1.000  H
  H7       1.0000 0.21050  0.65040  0.04390  Biso   1.000  H
  H8       1.0000 0.29410  0.82140  0.08890  Biso   1.000  H
  H9       1.0000 0.19310  0.78520  0.87950  Biso   1.000  H
  H10      1.0000 0.09820  0.61680  0.84260  Biso   1.000  H
  H11      1.0000 0.33870  0.27880  0.15700  Biso   1.000  H
  H12      1.0000 0.24690  0.11260  0.12150  Biso   1.000  H
  H13      1.0000 0.50280  0.08260  0.05510  Biso   1.000  H
  H14      1.0000 0.59760  0.25480  0.09400  Biso   1.000  H
  H15      1.0000 0.51750  0.38080  0.00130  Biso   1.000  H
  H16      1.0000 0.63010  0.42900  0.03840  Biso   1.000  H
  H17      1.0000 0.72510  0.23900  0.78350  Biso   1.000  H
  H18      1.0000 0.53830  0.17520  0.76360  Biso   1.000  H
  H19      1.0000 0.46190  0.27960  0.78690  Biso   1.000  H
  H20      1.0000 0.89250  0.73740  0.80400  Biso   1.000  H
  H21      1.0000 0.98820  0.82480  0.93280  Biso   1.000  H
  H22      1.0000 0.96420  0.74360  0.01100  Biso   1.000  H
  H23      1.0000 0.56010  0.34960  0.45610  Biso   1.000  H
  H24      1.0000 0.47270  0.17860  0.41110  Biso   1.000  H
  H25      1.0000 0.40790  0.21480  0.62050  Biso   1.000  H
  H26      1.0000 0.48140  0.38320  0.65740  Biso   1.000  H
  H27      1.0000 0.05990  0.72120  0.34300  Biso   1.000  H
  H28      1.0000 0.13430  0.88740  0.37850  Biso   1.000  H
  H29      1.0000 0.42020  0.91740  0.44490  Biso   1.000  H
  H30      1.0000 0.34280  0.74520  0.40600  Biso   1.000  H
  H31      1.0000 0.13670  0.61920  0.49870  Biso   1.000  H
  H32      1.0000 0.20110  0.57100  0.46160  Biso   1.000  H
  H33      1.0000 0.51390  0.23900  0.28350  Biso   1.000  H
  H34      1.0000 0.63690  0.17520  0.26360  Biso   1.000  H
  H35      1.0000 0.81770  0.27960  0.28690  Biso   1.000  H
  H36      1.0000 0.84490  0.73740  0.30400  Biso   1.000  H
  H37      1.0000 0.83660  0.82480  0.43280  Biso   1.000  H
  H38      1.0000 0.77940  0.74360  0.51100  Biso   1.000  H
  H39      1.0000 0.78950  0.34960  0.95610  Biso   1.000  H
  H40      1.0000 0.70590  0.17860  0.91110  Biso   1.000  H
  H41      1.0000 0.80690  0.21480  0.12050  Biso   1.000  H
  H42      1.0000 0.90180  0.38320  0.15740  Biso   1.000  H
  H43      1.0000 0.66130  0.72120  0.84300  Biso   1.000  H
  H44      1.0000 0.75310  0.88740  0.87850  Biso   1.000  H
  H45      1.0000 0.49720  0.91740  0.94490  Biso   1.000  H
  H46      1.0000 0.40240  0.74520  0.90600  Biso   1.000  H
  H47      1.0000 0.48250  0.61920  0.99870  Biso   1.000  H
  H48      1.0000 0.36990  0.57100  0.96160  Biso   1.000  H
  H49      1.0000 0.27490  0.76100  0.21650  Biso   1.000  H
  H50      1.0000 0.46170  0.82480  0.23640  Biso   1.000  H
  H51      1.0000 0.53810  0.72040  0.21310  Biso   1.000  H
  H52      1.0000 0.10750  0.26260  0.19600  Biso   1.000  H
  H53      1.0000 0.01180  0.17520  0.06720  Biso   1.000  H
  H54      1.0000 0.03580  0.25640  0.98900  Biso   1.000  H
  H55      1.0000 0.43990  0.65040  0.54390  Biso   1.000  H
  H56      1.0000 0.52730  0.82140  0.58890  Biso   1.000  H
  H57      1.0000 0.59210  0.78520  0.37950  Biso   1.000  H
  H58      1.0000 0.51860  0.61680  0.34260  Biso   1.000  H
  H59      1.0000 0.94010  0.27880  0.65700  Biso   1.000  H
  H60      1.0000 0.86570  0.11260  0.62150  Biso   1.000  H
  H61      1.0000 0.57980  0.08260  0.55510  Biso   1.000  H
  H62      1.0000 0.65720  0.25480  0.59400  Biso   1.000  H
  H63      1.0000 0.86330  0.38080  0.50130  Biso   1.000  H
  H64      1.0000 0.79890  0.42900  0.53840  Biso   1.000  H
  C1       1.0000 0.45550  0.57780  0.68100  Biso   1.000  C
  C2       1.0000 0.38000  0.62060  0.69100  Biso   1.000  C
  C3       1.0000 0.41320  0.71920  0.71020  Biso   1.000  C
  C4       1.0000 0.33920  0.75720  0.72040  Biso   1.000  C
  C5       1.0000 0.23160  0.69500  0.70670  Biso   1.000  C
  C6       1.0000 0.19430  0.59380  0.68340  Biso   1.000  C
  C7       1.0000 0.26680  0.55480  0.67550  Biso   1.000  C
  C8       1.0000 0.07310  0.52920  0.66740  Biso   1.000  C
  C9       1.0000 0.20320  0.44820  0.77710  Biso   1.000  C
  C10      1.0000 0.20710  0.39460  0.69460  Biso   1.000  C
  C11      1.0000 0.17800  0.29540  0.66440  Biso   1.000  C
  C12      1.0000 0.18200  0.24220  0.58670  Biso   1.000  C
  C13      1.0000 0.21400  0.29040  0.53960  Biso   1.000  C
  C14      1.0000 0.23650  0.38980  0.56690  Biso   1.000  C
  C15      1.0000 0.23470  0.44380  0.64580  Biso   1.000  C
  C16      1.0000 0.26830  0.43560  0.51040  Biso   1.000  C
  C17      1.0000 0.20470  0.67740  0.01040  Biso   1.000  C
  C18      1.0000 0.25560  0.78040  0.03770  Biso   1.000  C
  C19      1.0000 0.24860  0.82020  0.98890  Biso   1.000  C
  C20      1.0000 0.19480  0.75980  0.91500  Biso   1.000  C
  C21      1.0000 0.14120  0.65820  0.89240  Biso   1.000  C
  C22      1.0000 0.37350  0.23980  0.13660  Biso   1.000  C
  C23      1.0000 0.31760  0.13980  0.11430  Biso   1.000  C
  C24      1.0000 0.36440  0.08040  0.08200  Biso   1.000  C
  C25      1.0000 0.46840  0.12200  0.07540  Biso   1.000  C
  C26      1.0000 0.52600  0.22640  0.09940  Biso   1.000  C
  C27      1.0000 0.87770  0.42220  0.81900  Biso   1.000  C
  C28      1.0000 0.75940  0.37940  0.80900  Biso   1.000  C
  C29      1.0000 0.69400  0.28080  0.78980  Biso   1.000  C
  C30      1.0000 0.58200  0.24280  0.77960  Biso   1.000  C
  C31      1.0000 0.53660  0.30500  0.79330  Biso   1.000  C
  C32      1.0000 0.60050  0.40620  0.81660  Biso   1.000  C
  C33      1.0000 0.71200  0.44520  0.82450  Biso   1.000  C
  C34      1.0000 0.54390  0.47080  0.83260  Biso   1.000  C
  C35      1.0000 0.75500  0.55180  0.72290  Biso   1.000  C
  C36      1.0000 0.81250  0.60540  0.80540  Biso   1.000  C
  C37      1.0000 0.88260  0.70460  0.83560  Biso   1.000  C
  C38      1.0000 0.93980  0.75780  0.91330  Biso   1.000  C
  C39      1.0000 0.92360  0.70960  0.96040  Biso   1.000  C
  C40      1.0000 0.84670  0.61020  0.93310  Biso   1.000  C
  C41      1.0000 0.79090  0.55620  0.85420  Biso   1.000  C
  C42      1.0000 0.83270  0.56440  0.98960  Biso   1.000  C
  C43      1.0000 0.52730  0.32260  0.48960  Biso   1.000  C
  C44      1.0000 0.47520  0.21960  0.46230  Biso   1.000  C
  C45      1.0000 0.42840  0.17980  0.51110  Biso   1.000  C
  C46      1.0000 0.43500  0.24020  0.58500  Biso   1.000  C
  C47      1.0000 0.48300  0.34180  0.60760  Biso   1.000  C
  C48      1.0000 0.13370  0.76020  0.36340  Biso   1.000  C
  C49      1.0000 0.17780  0.86020  0.38570  Biso   1.000  C
  C50      1.0000 0.28400  0.91960  0.41800  Biso   1.000  C
  C51      1.0000 0.34640  0.87800  0.42460  Biso   1.000  C
  C52      1.0000 0.29960  0.77360  0.40060  Biso   1.000  C
  C53      1.0000 0.54450  0.42220  0.31900  Biso   1.000  C
  C54      1.0000 0.62000  0.37940  0.30900  Biso   1.000  C
  C55      1.0000 0.58680  0.28080  0.28980  Biso   1.000  C
  C56      1.0000 0.66080  0.24280  0.27960  Biso   1.000  C
  C57      1.0000 0.76840  0.30500  0.29330  Biso   1.000  C
  C58      1.0000 0.80570  0.40620  0.31660  Biso   1.000  C
  C59      1.0000 0.73320  0.44520  0.32450  Biso   1.000  C
  C60      1.0000 0.92690  0.47080  0.33260  Biso   1.000  C
  C61      1.0000 0.79680  0.55180  0.22290  Biso   1.000  C
  C62      1.0000 0.79290  0.60540  0.30540  Biso   1.000  C
  C63      1.0000 0.82200  0.70460  0.33560  Biso   1.000  C
  C64      1.0000 0.81800  0.75780  0.41330  Biso   1.000  C
  C65      1.0000 0.78600  0.70960  0.46040  Biso   1.000  C
  C66      1.0000 0.76350  0.61020  0.43310  Biso   1.000  C
  C67      1.0000 0.76530  0.55620  0.35420  Biso   1.000  C
  C68      1.0000 0.73170  0.56440  0.48960  Biso   1.000  C
  C69      1.0000 0.79530  0.32260  0.98960  Biso   1.000  C
  C70      1.0000 0.74440  0.21960  0.96230  Biso   1.000  C
  C71      1.0000 0.75140  0.17980  0.01110  Biso   1.000  C
  C72      1.0000 0.80520  0.24020  0.08500  Biso   1.000  C
  C73      1.0000 0.85880  0.34180  0.10760  Biso   1.000  C
  C74      1.0000 0.62650  0.76020  0.86340  Biso   1.000  C
  C75      1.0000 0.68240  0.86020  0.88570  Biso   1.000  C
  C76      1.0000 0.63560  0.91960  0.91800  Biso   1.000  C
  C77      1.0000 0.53160  0.87800  0.92460  Biso   1.000  C
  C78      1.0000 0.47400  0.77360  0.90060  Biso   1.000  C
  C79      1.0000 0.12230  0.57780  0.18100  Biso   1.000  C
  C80      1.0000 0.24060  0.62060  0.19100  Biso   1.000  C
  C81      1.0000 0.30600  0.71920  0.21020  Biso   1.000  C
  C82      1.0000 0.41800  0.75720  0.22040  Biso   1.000  C
  C83      1.0000 0.46340  0.69500  0.20670  Biso   1.000  C
  C84      1.0000 0.39950  0.59380  0.18340  Biso   1.000  C
  C85      1.0000 0.28800  0.55480  0.17550  Biso   1.000  C
  C86      1.0000 0.45610  0.52920  0.16740  Biso   1.000  C
  C87      1.0000 0.24500  0.44820  0.27710  Biso   1.000  C
  C88      1.0000 0.18750  0.39460  0.19460  Biso   1.000  C
  C89      1.0000 0.11740  0.29540  0.16440  Biso   1.000  C
  C90      1.0000 0.06020  0.24220  0.08670  Biso   1.000  C
  C91      1.0000 0.07640  0.29040  0.03960  Biso   1.000  C
  C92      1.0000 0.15330  0.38980  0.06690  Biso   1.000  C
  C93      1.0000 0.20910  0.44380  0.14580  Biso   1.000  C
  C94      1.0000 0.16730  0.43560  0.01040  Biso   1.000  C
  C95      1.0000 0.47270  0.67740  0.51040  Biso   1.000  C
  C96      1.0000 0.52480  0.78040  0.53770  Biso   1.000  C
  C97      1.0000 0.57160  0.82020  0.48890  Biso   1.000  C
  C98      1.0000 0.56500  0.75980  0.41500  Biso   1.000  C
  C99      1.0000 0.51700  0.65820  0.39240  Biso   1.000  C
  C100     1.0000 0.86630  0.23980  0.63660  Biso   1.000  C
  C101     1.0000 0.82220  0.13980  0.61430  Biso   1.000  C
  C102     1.0000 0.71600  0.08040  0.58200  Biso   1.000  C
  C103     1.0000 0.65360  0.12200  0.57540  Biso   1.000  C
  C104     1.0000 0.70040  0.22640  0.59940  Biso   1.000  C
  N1       1.0000 0.14862  0.61752  0.93858  Biso   1.000  N
  N2       1.0000 0.30458  0.92446  0.00911  Biso   1.000  N
  N3       1.0000 0.30040  0.97506  0.06067  Biso   1.000  N
  N4       1.0000 0.47772  0.28414  0.12989  Biso   1.000  N
  N5       1.0000 0.53110  0.38248  0.56142  Biso   1.000  N
  N6       1.0000 0.38012  0.07554  0.49089  Biso   1.000  N
  N7       1.0000 0.32534  0.02494  0.43933  Biso   1.000  N
  N8       1.0000 0.19358  0.71586  0.37011  Biso   1.000  N
  N9       1.0000 0.85138  0.38248  0.06142  Biso   1.000  N
  N10      1.0000 0.69542  0.07554  0.99089  Biso   1.000  N
  N11      1.0000 0.69960  0.02494  0.93933  Biso   1.000  N
  N12      1.0000 0.52228  0.71586  0.87011  Biso   1.000  N
  N13      1.0000 0.46890  0.61752  0.43858  Biso   1.000  N
  N14      1.0000 0.61988  0.92446  0.50911  Biso   1.000  N
  N15      1.0000 0.67466  0.97506  0.56067  Biso   1.000  N
  N16      1.0000 0.80642  0.28414  0.62989  Biso   1.000  N
  O1       1.0000 0.51433  0.59040  0.63003  Biso   1.000  O
  O2       1.0000 0.46616  0.53644  0.72137  Biso   1.000  O
  O3       1.0000 0.28221  0.52974  0.82271  Biso   1.000  O
  O4       1.0000 0.11842  0.40438  0.79958  Biso   1.000  O
  O5       1.0000 0.01114  0.57060  0.68150  Biso   1.000  O
  O6       1.0000 0.03420  0.43762  0.64185  Biso   1.000  O
  O7       1.0000 0.22329  0.48596  0.50524  Biso   1.000  O
  O8       1.0000 0.33453  0.41556  0.47097  Biso   1.000  O
  O9       1.0000 0.56424  0.39582  0.03907  Biso   1.000  O
  O10      1.0000 0.92393  0.40960  0.86997  Biso   1.000  O
  O11      1.0000 0.92972  0.46356  0.77863  Biso   1.000  O
  O12      1.0000 0.75247  0.47026  0.67729  Biso   1.000  O
  O13      1.0000 0.71404  0.59562  0.70042  Biso   1.000  O
  O14      1.0000 0.44054  0.42940  0.81850  Biso   1.000  O
  O15      1.0000 0.59658  0.56238  0.85815  Biso   1.000  O
  O16      1.0000 0.73733  0.51404  0.99476  Biso   1.000  O
  O17      1.0000 0.91897  0.58444  0.02903  Biso   1.000  O
  O18      1.0000 0.16842  0.60418  0.46093  Biso   1.000  O
  O19      1.0000 0.48567  0.40960  0.36997  Biso   1.000  O
  O20      1.0000 0.53384  0.46356  0.27863  Biso   1.000  O
  O21      1.0000 0.71779  0.47026  0.17729  Biso   1.000  O
  O22      1.0000 0.88158  0.59562  0.20042  Biso   1.000  O
  O23      1.0000 0.98886  0.42940  0.31850  Biso   1.000  O
  O24      1.0000 0.96580  0.56238  0.35815  Biso   1.000  O
  O25      1.0000 0.77671  0.51404  0.49476  Biso   1.000  O
  O26      1.0000 0.66547  0.58444  0.52903  Biso   1.000  O
  O27      1.0000 0.43576  0.60418  0.96093  Biso   1.000  O
  O28      1.0000 0.07607  0.59040  0.13003  Biso   1.000  O
  O29      1.0000 0.07028  0.53644  0.22137  Biso   1.000  O
  O30      1.0000 0.24753  0.52974  0.32271  Biso   1.000  O
  O31      1.0000 0.28596  0.40438  0.29958  Biso   1.000  O
  O32      1.0000 0.55946  0.57060  0.18150  Biso   1.000  O
  O33      1.0000 0.40342  0.43762  0.14185  Biso   1.000  O
  O34      1.0000 0.26267  0.48596  0.00524  Biso   1.000  O
  O35      1.0000 0.08103  0.41556  0.97097  Biso   1.000  O
  O36      1.0000 0.83158  0.39582  0.53907  Biso   1.000  O
