data_image0
_cell_length_a       18.1424
_cell_length_b       18.1424
_cell_length_c       18.1424
_cell_angle_alpha    60
_cell_angle_beta     60
_cell_angle_gamma    60

_symmetry_space_group_name_H-M    P 1
_symmetry_int_tables_number       1

loop_
  _symmetry_equiv_pos_as_xyz
  'x, y, z'

loop_
  _atom_site_label
  _atom_site_occupancy
  _atom_site_fract_x
  _atom_site_fract_y
  _atom_site_fract_z
  _atom_site_thermal_displace_type
  _atom_site_B_iso_or_equiv
  _atom_site_type_symbol
  Zn1      1.0000 0.79369  0.79368  0.61895  Biso   1.000  Zn
  Zn2      1.0000 0.79369  0.79368  0.79368  Biso   1.000  Zn
  Zn3      1.0000 0.61896  0.79368  0.79368  Biso   1.000  Zn
  Zn4      1.0000 0.79369  0.61895  0.79368  Biso   1.000  Zn
  Zn5      1.0000 0.20631  0.20632  0.38105  Biso   1.000  Zn
  Zn6      1.0000 0.20631  0.20632  0.20632  Biso   1.000  Zn
  Zn7      1.0000 0.20631  0.38105  0.20632  Biso   1.000  Zn
  Zn8      1.0000 0.38104  0.20632  0.20632  Biso   1.000  Zn
  H1       1.0000 0.65590  0.95550  0.43310  Biso   1.000  H
  H2       1.0000 0.95550  0.65590  0.95550  Biso   1.000  H
  H3       1.0000 0.43310  0.95550  0.65590  Biso   1.000  H
  H4       1.0000 0.95550  0.43310  0.95550  Biso   1.000  H
  H5       1.0000 0.65590  0.43310  0.95550  Biso   1.000  H
  H6       1.0000 0.95550  0.95550  0.43310  Biso   1.000  H
  H7       1.0000 0.43310  0.65590  0.95550  Biso   1.000  H
  H8       1.0000 0.95550  0.95550  0.65590  Biso   1.000  H
  H9       1.0000 0.65590  0.95550  0.95550  Biso   1.000  H
  H10      1.0000 0.95550  0.43310  0.65590  Biso   1.000  H
  H11      1.0000 0.43310  0.95550  0.95550  Biso   1.000  H
  H12      1.0000 0.95550  0.65590  0.43310  Biso   1.000  H
  H13      1.0000 0.04450  0.34410  0.56690  Biso   1.000  H
  H14      1.0000 0.34410  0.04450  0.04450  Biso   1.000  H
  H15      1.0000 0.04450  0.56690  0.34410  Biso   1.000  H
  H16      1.0000 0.56690  0.04450  0.04450  Biso   1.000  H
  H17      1.0000 0.56690  0.34410  0.04450  Biso   1.000  H
  H18      1.0000 0.04450  0.04450  0.56690  Biso   1.000  H
  H19      1.0000 0.34410  0.56690  0.04450  Biso   1.000  H
  H20      1.0000 0.04450  0.04450  0.34410  Biso   1.000  H
  H21      1.0000 0.04450  0.34410  0.04450  Biso   1.000  H
  H22      1.0000 0.56690  0.04450  0.34410  Biso   1.000  H
  H23      1.0000 0.04450  0.56690  0.04450  Biso   1.000  H
  H24      1.0000 0.34410  0.04450  0.56690  Biso   1.000  H
  C1       1.0000 0.59211  0.97397  0.45995  Biso   1.000  C
  C2       1.0000 0.97397  0.59211  0.97397  Biso   1.000  C
  C3       1.0000 0.45995  0.97397  0.59211  Biso   1.000  C
  C4       1.0000 0.97397  0.45995  0.97397  Biso   1.000  C
  C5       1.0000 0.59211  0.45995  0.97397  Biso   1.000  C
  C6       1.0000 0.97397  0.97397  0.45995  Biso   1.000  C
  C7       1.0000 0.45995  0.59211  0.97397  Biso   1.000  C
  C8       1.0000 0.97397  0.97397  0.59211  Biso   1.000  C
  C9       1.0000 0.59211  0.97397  0.97397  Biso   1.000  C
  C10      1.0000 0.97397  0.45995  0.59211  Biso   1.000  C
  C11      1.0000 0.45995  0.97397  0.97397  Biso   1.000  C
  C12      1.0000 0.97397  0.59211  0.45995  Biso   1.000  C
  C13      1.0000 0.02603  0.40789  0.54005  Biso   1.000  C
  C14      1.0000 0.40789  0.02603  0.02603  Biso   1.000  C
  C15      1.0000 0.02603  0.54005  0.40789  Biso   1.000  C
  C16      1.0000 0.54005  0.02603  0.02603  Biso   1.000  C
  C17      1.0000 0.54005  0.40789  0.02603  Biso   1.000  C
  C18      1.0000 0.02603  0.02603  0.54005  Biso   1.000  C
  C19      1.0000 0.40789  0.54005  0.02603  Biso   1.000  C
  C20      1.0000 0.02603  0.02603  0.40789  Biso   1.000  C
  C21      1.0000 0.02603  0.40789  0.02603  Biso   1.000  C
  C22      1.0000 0.54005  0.02603  0.40789  Biso   1.000  C
  C23      1.0000 0.02603  0.54005  0.02603  Biso   1.000  C
  C24      1.0000 0.40789  0.02603  0.54005  Biso   1.000  C
  C25      1.0000 0.55320  0.94680  0.55320  Biso   1.000  C
  C26      1.0000 0.61160  0.88840  0.61160  Biso   1.000  C
  C27      1.0000 0.94680  0.55320  0.94680  Biso   1.000  C
  C28      1.0000 0.88840  0.61160  0.88840  Biso   1.000  C
  C29      1.0000 0.55320  0.55320  0.94680  Biso   1.000  C
  C30      1.0000 0.61160  0.61160  0.88840  Biso   1.000  C
  C31      1.0000 0.94680  0.94680  0.55320  Biso   1.000  C
  C32      1.0000 0.88840  0.88840  0.61160  Biso   1.000  C
  C33      1.0000 0.55320  0.94680  0.94680  Biso   1.000  C
  C34      1.0000 0.61160  0.88840  0.88840  Biso   1.000  C
  C35      1.0000 0.94680  0.55320  0.55320  Biso   1.000  C
  C36      1.0000 0.88840  0.61160  0.61160  Biso   1.000  C
  C37      1.0000 0.05320  0.44680  0.44680  Biso   1.000  C
  C38      1.0000 0.11160  0.38840  0.38840  Biso   1.000  C
  C39      1.0000 0.44680  0.05320  0.05320  Biso   1.000  C
  C40      1.0000 0.38840  0.11160  0.11160  Biso   1.000  C
  C41      1.0000 0.44680  0.44680  0.05320  Biso   1.000  C
  C42      1.0000 0.38840  0.38840  0.11160  Biso   1.000  C
  C43      1.0000 0.05320  0.05320  0.44680  Biso   1.000  C
  C44      1.0000 0.11160  0.11160  0.38840  Biso   1.000  C
  C45      1.0000 0.05320  0.44680  0.05320  Biso   1.000  C
  C46      1.0000 0.11160  0.38840  0.11160  Biso   1.000  C
  C47      1.0000 0.44680  0.05320  0.44680  Biso   1.000  C
  C48      1.0000 0.38840  0.11160  0.38840  Biso   1.000  C
  O1       1.0000 0.75000  0.75000  0.75000  Biso   1.000  O
  O2       1.0000 0.25000  0.25000  0.25000  Biso   1.000  O
  O3       1.0000 0.69809  0.86635  0.56921  Biso   1.000  O
  O4       1.0000 0.86635  0.69809  0.86635  Biso   1.000  O
  O5       1.0000 0.56921  0.86635  0.69809  Biso   1.000  O
  O6       1.0000 0.86635  0.56921  0.86635  Biso   1.000  O
  O7       1.0000 0.69809  0.56921  0.86635  Biso   1.000  O
  O8       1.0000 0.86635  0.86635  0.56921  Biso   1.000  O
  O9       1.0000 0.56921  0.69809  0.86635  Biso   1.000  O
  O10      1.0000 0.86635  0.86635  0.69809  Biso   1.000  O
  O11      1.0000 0.69809  0.86635  0.86635  Biso   1.000  O
  O12      1.0000 0.86635  0.56921  0.69809  Biso   1.000  O
  O13      1.0000 0.56921  0.86635  0.86635  Biso   1.000  O
  O14      1.0000 0.86635  0.69809  0.56921  Biso   1.000  O
  O15      1.0000 0.13365  0.30191  0.43079  Biso   1.000  O
  O16      1.0000 0.30191  0.13365  0.13365  Biso   1.000  O
  O17      1.0000 0.13365  0.43079  0.30191  Biso   1.000  O
  O18      1.0000 0.43079  0.13365  0.13365  Biso   1.000  O
  O19      1.0000 0.43079  0.30191  0.13365  Biso   1.000  O
  O20      1.0000 0.13365  0.13365  0.43079  Biso   1.000  O
  O21      1.0000 0.30191  0.43079  0.13365  Biso   1.000  O
  O22      1.0000 0.13365  0.13365  0.30191  Biso   1.000  O
  O23      1.0000 0.13365  0.30191  0.13365  Biso   1.000  O
  O24      1.0000 0.43079  0.13365  0.30191  Biso   1.000  O
  O25      1.0000 0.13365  0.43079  0.13365  Biso   1.000  O
  O26      1.0000 0.30191  0.13365  0.43079  Biso   1.000  O
