data_image0
_cell_length_a       18.807
_cell_length_b       18.807
_cell_length_c       18.807
_cell_angle_alpha    90
_cell_angle_beta     90
_cell_angle_gamma    90

_symmetry_space_group_name_H-M    P 1
_symmetry_int_tables_number       1

loop_
  _symmetry_equiv_pos_as_xyz
  'x, y, z'

loop_
  _atom_site_label
  _atom_site_occupancy
  _atom_site_fract_x
  _atom_site_fract_y
  _atom_site_fract_z
  _atom_site_thermal_displace_type
  _atom_site_B_iso_or_equiv
  _atom_site_type_symbol
  Cu1      1.0000 0.00000  0.61329  0.50000  Biso   1.000  Cu
  Cu2      1.0000 0.00000  0.38671  0.50000  Biso   1.000  Cu
  Cu3      1.0000 0.50000  0.00000  0.61329  Biso   1.000  Cu
  Cu4      1.0000 0.50000  0.00000  0.38671  Biso   1.000  Cu
  Cu5      1.0000 0.61329  0.50000  0.00000  Biso   1.000  Cu
  Cu6      1.0000 0.38671  0.50000  0.00000  Biso   1.000  Cu
  Cu7      1.0000 0.61329  0.00000  0.50000  Biso   1.000  Cu
  Cu8      1.0000 0.38671  0.00000  0.50000  Biso   1.000  Cu
  Cu9      1.0000 0.00000  0.50000  0.38671  Biso   1.000  Cu
  Cu10     1.0000 0.00000  0.50000  0.61329  Biso   1.000  Cu
  Cu11     1.0000 0.50000  0.61329  0.00000  Biso   1.000  Cu
  Cu12     1.0000 0.50000  0.38671  0.00000  Biso   1.000  Cu
  H1       1.0000 0.85021  0.71080  0.56012  Biso   1.000  H
  H2       1.0000 0.14979  0.28920  0.56012  Biso   1.000  H
  H3       1.0000 0.14979  0.71080  0.43988  Biso   1.000  H
  H4       1.0000 0.85021  0.28920  0.43988  Biso   1.000  H
  H5       1.0000 0.56012  0.85021  0.71080  Biso   1.000  H
  H6       1.0000 0.56012  0.14979  0.28920  Biso   1.000  H
  H7       1.0000 0.43988  0.14979  0.71080  Biso   1.000  H
  H8       1.0000 0.43988  0.85021  0.28920  Biso   1.000  H
  H9       1.0000 0.71080  0.56012  0.85021  Biso   1.000  H
  H10      1.0000 0.28920  0.56012  0.14979  Biso   1.000  H
  H11      1.0000 0.71080  0.43988  0.14979  Biso   1.000  H
  H12      1.0000 0.28920  0.43988  0.85021  Biso   1.000  H
  H13      1.0000 0.71080  0.85021  0.43988  Biso   1.000  H
  H14      1.0000 0.28920  0.14979  0.43988  Biso   1.000  H
  H15      1.0000 0.71080  0.14979  0.56012  Biso   1.000  H
  H16      1.0000 0.28920  0.85021  0.56012  Biso   1.000  H
  H17      1.0000 0.85021  0.56012  0.28920  Biso   1.000  H
  H18      1.0000 0.14979  0.56012  0.71080  Biso   1.000  H
  H19      1.0000 0.14979  0.43988  0.28920  Biso   1.000  H
  H20      1.0000 0.85021  0.43988  0.71080  Biso   1.000  H
  H21      1.0000 0.56012  0.71080  0.14979  Biso   1.000  H
  H22      1.0000 0.56012  0.28920  0.85021  Biso   1.000  H
  H23      1.0000 0.43988  0.71080  0.85021  Biso   1.000  H
  H24      1.0000 0.43988  0.28920  0.14979  Biso   1.000  H
  H25      1.0000 0.14979  0.28920  0.43988  Biso   1.000  H
  H26      1.0000 0.85021  0.71080  0.43988  Biso   1.000  H
  H27      1.0000 0.85021  0.28920  0.56012  Biso   1.000  H
  H28      1.0000 0.14979  0.71080  0.56012  Biso   1.000  H
  H29      1.0000 0.43988  0.14979  0.28920  Biso   1.000  H
  H30      1.0000 0.43988  0.85021  0.71080  Biso   1.000  H
  H31      1.0000 0.56012  0.85021  0.28920  Biso   1.000  H
  H32      1.0000 0.56012  0.14979  0.71080  Biso   1.000  H
  H33      1.0000 0.28920  0.43988  0.14979  Biso   1.000  H
  H34      1.0000 0.71080  0.43988  0.85021  Biso   1.000  H
  H35      1.0000 0.28920  0.56012  0.85021  Biso   1.000  H
  H36      1.0000 0.71080  0.56012  0.14979  Biso   1.000  H
  H37      1.0000 0.28920  0.14979  0.56012  Biso   1.000  H
  H38      1.0000 0.71080  0.85021  0.56012  Biso   1.000  H
  H39      1.0000 0.28920  0.85021  0.43988  Biso   1.000  H
  H40      1.0000 0.71080  0.14979  0.43988  Biso   1.000  H
  H41      1.0000 0.14979  0.43988  0.71080  Biso   1.000  H
  H42      1.0000 0.85021  0.43988  0.28920  Biso   1.000  H
  H43      1.0000 0.85021  0.56012  0.71080  Biso   1.000  H
  H44      1.0000 0.14979  0.56012  0.28920  Biso   1.000  H
  H45      1.0000 0.43988  0.28920  0.85021  Biso   1.000  H
  H46      1.0000 0.43988  0.71080  0.14979  Biso   1.000  H
  H47      1.0000 0.56012  0.28920  0.14979  Biso   1.000  H
  H48      1.0000 0.56012  0.71080  0.85021  Biso   1.000  H
  H49      1.0000 0.76895  0.76895  0.61711  Biso   1.000  H
  H50      1.0000 0.23105  0.23105  0.61711  Biso   1.000  H
  H51      1.0000 0.23105  0.76895  0.38289  Biso   1.000  H
  H52      1.0000 0.76895  0.23105  0.38289  Biso   1.000  H
  H53      1.0000 0.61711  0.76895  0.76895  Biso   1.000  H
  H54      1.0000 0.61711  0.23105  0.23105  Biso   1.000  H
  H55      1.0000 0.38289  0.23105  0.76895  Biso   1.000  H
  H56      1.0000 0.38289  0.76895  0.23105  Biso   1.000  H
  H57      1.0000 0.76895  0.61711  0.76895  Biso   1.000  H
  H58      1.0000 0.23105  0.61711  0.23105  Biso   1.000  H
  H59      1.0000 0.76895  0.38289  0.23105  Biso   1.000  H
  H60      1.0000 0.23105  0.38289  0.76895  Biso   1.000  H
  H61      1.0000 0.76895  0.76895  0.38289  Biso   1.000  H
  H62      1.0000 0.23105  0.23105  0.38289  Biso   1.000  H
  H63      1.0000 0.76895  0.23105  0.61711  Biso   1.000  H
  H64      1.0000 0.23105  0.76895  0.61711  Biso   1.000  H
  H65      1.0000 0.76895  0.61711  0.23105  Biso   1.000  H
  H66      1.0000 0.23105  0.61711  0.76895  Biso   1.000  H
  H67      1.0000 0.23105  0.38289  0.23105  Biso   1.000  H
  H68      1.0000 0.76895  0.38289  0.76895  Biso   1.000  H
  H69      1.0000 0.61711  0.76895  0.23105  Biso   1.000  H
  H70      1.0000 0.61711  0.23105  0.76895  Biso   1.000  H
  H71      1.0000 0.38289  0.76895  0.76895  Biso   1.000  H
  H72      1.0000 0.38289  0.23105  0.23105  Biso   1.000  H
  C1       1.0000 0.86124  0.66902  0.58629  Biso   1.000  C
  C2       1.0000 0.13876  0.33098  0.58629  Biso   1.000  C
  C3       1.0000 0.13876  0.66902  0.41371  Biso   1.000  C
  C4       1.0000 0.86124  0.33098  0.41371  Biso   1.000  C
  C5       1.0000 0.58629  0.86124  0.66902  Biso   1.000  C
  C6       1.0000 0.58629  0.13876  0.33098  Biso   1.000  C
  C7       1.0000 0.41371  0.13876  0.66902  Biso   1.000  C
  C8       1.0000 0.41371  0.86124  0.33098  Biso   1.000  C
  C9       1.0000 0.66902  0.58629  0.86124  Biso   1.000  C
  C10      1.0000 0.33098  0.58629  0.13876  Biso   1.000  C
  C11      1.0000 0.66902  0.41371  0.13876  Biso   1.000  C
  C12      1.0000 0.33098  0.41371  0.86124  Biso   1.000  C
  C13      1.0000 0.66902  0.86124  0.41371  Biso   1.000  C
  C14      1.0000 0.33098  0.13876  0.41371  Biso   1.000  C
  C15      1.0000 0.66902  0.13876  0.58629  Biso   1.000  C
  C16      1.0000 0.33098  0.86124  0.58629  Biso   1.000  C
  C17      1.0000 0.86124  0.58629  0.33098  Biso   1.000  C
  C18      1.0000 0.13876  0.58629  0.66902  Biso   1.000  C
  C19      1.0000 0.13876  0.41371  0.33098  Biso   1.000  C
  C20      1.0000 0.86124  0.41371  0.66902  Biso   1.000  C
  C21      1.0000 0.58629  0.66902  0.13876  Biso   1.000  C
  C22      1.0000 0.58629  0.33098  0.86124  Biso   1.000  C
  C23      1.0000 0.41371  0.66902  0.86124  Biso   1.000  C
  C24      1.0000 0.41371  0.33098  0.13876  Biso   1.000  C
  C25      1.0000 0.13876  0.33098  0.41371  Biso   1.000  C
  C26      1.0000 0.86124  0.66902  0.41371  Biso   1.000  C
  C27      1.0000 0.86124  0.33098  0.58629  Biso   1.000  C
  C28      1.0000 0.13876  0.66902  0.58629  Biso   1.000  C
  C29      1.0000 0.41371  0.13876  0.33098  Biso   1.000  C
  C30      1.0000 0.41371  0.86124  0.66902  Biso   1.000  C
  C31      1.0000 0.58629  0.86124  0.33098  Biso   1.000  C
  C32      1.0000 0.58629  0.13876  0.66902  Biso   1.000  C
  C33      1.0000 0.33098  0.41371  0.13876  Biso   1.000  C
  C34      1.0000 0.66902  0.41371  0.86124  Biso   1.000  C
  C35      1.0000 0.33098  0.58629  0.86124  Biso   1.000  C
  C36      1.0000 0.66902  0.58629  0.13876  Biso   1.000  C
  C37      1.0000 0.33098  0.13876  0.58629  Biso   1.000  C
  C38      1.0000 0.66902  0.86124  0.58629  Biso   1.000  C
  C39      1.0000 0.33098  0.86124  0.41371  Biso   1.000  C
  C40      1.0000 0.66902  0.13876  0.41371  Biso   1.000  C
  C41      1.0000 0.13876  0.41371  0.66902  Biso   1.000  C
  C42      1.0000 0.86124  0.41371  0.33098  Biso   1.000  C
  C43      1.0000 0.86124  0.58629  0.66902  Biso   1.000  C
  C44      1.0000 0.13876  0.58629  0.33098  Biso   1.000  C
  C45      1.0000 0.41371  0.33098  0.86124  Biso   1.000  C
  C46      1.0000 0.41371  0.66902  0.13876  Biso   1.000  C
  C47      1.0000 0.58629  0.33098  0.13876  Biso   1.000  C
  C48      1.0000 0.58629  0.66902  0.86124  Biso   1.000  C
  C49      1.0000 0.77667  0.68746  0.68746  Biso   1.000  C
  C50      1.0000 0.83119  0.64891  0.64891  Biso   1.000  C
  C51      1.0000 0.22333  0.31254  0.68746  Biso   1.000  C
  C52      1.0000 0.16881  0.35109  0.64891  Biso   1.000  C
  C53      1.0000 0.22333  0.68746  0.31254  Biso   1.000  C
  C54      1.0000 0.16881  0.64891  0.35109  Biso   1.000  C
  C55      1.0000 0.77667  0.31254  0.31254  Biso   1.000  C
  C56      1.0000 0.83119  0.35109  0.35109  Biso   1.000  C
  C57      1.0000 0.68746  0.77667  0.68746  Biso   1.000  C
  C58      1.0000 0.64891  0.83119  0.64891  Biso   1.000  C
  C59      1.0000 0.68746  0.22333  0.31254  Biso   1.000  C
  C60      1.0000 0.64891  0.16881  0.35109  Biso   1.000  C
  C61      1.0000 0.31254  0.22333  0.68746  Biso   1.000  C
  C62      1.0000 0.35109  0.16881  0.64891  Biso   1.000  C
  C63      1.0000 0.31254  0.77667  0.31254  Biso   1.000  C
  C64      1.0000 0.35109  0.83119  0.35109  Biso   1.000  C
  C65      1.0000 0.68746  0.68746  0.77667  Biso   1.000  C
  C66      1.0000 0.64891  0.64891  0.83119  Biso   1.000  C
  C67      1.0000 0.31254  0.68746  0.22333  Biso   1.000  C
  C68      1.0000 0.35109  0.64891  0.16881  Biso   1.000  C
  C69      1.0000 0.68746  0.31254  0.22333  Biso   1.000  C
  C70      1.0000 0.64891  0.35109  0.16881  Biso   1.000  C
  C71      1.0000 0.31254  0.31254  0.77667  Biso   1.000  C
  C72      1.0000 0.35109  0.35109  0.83119  Biso   1.000  C
  C73      1.0000 0.68746  0.77667  0.31254  Biso   1.000  C
  C74      1.0000 0.64891  0.83119  0.35109  Biso   1.000  C
  C75      1.0000 0.31254  0.22333  0.31254  Biso   1.000  C
  C76      1.0000 0.35109  0.16881  0.35109  Biso   1.000  C
  C77      1.0000 0.68746  0.22333  0.68746  Biso   1.000  C
  C78      1.0000 0.64891  0.16881  0.64891  Biso   1.000  C
  C79      1.0000 0.31254  0.77667  0.68746  Biso   1.000  C
  C80      1.0000 0.35109  0.83119  0.64891  Biso   1.000  C
  C81      1.0000 0.77667  0.68746  0.31254  Biso   1.000  C
  C82      1.0000 0.83119  0.64891  0.35109  Biso   1.000  C
  C83      1.0000 0.22333  0.68746  0.68746  Biso   1.000  C
  C84      1.0000 0.16881  0.64891  0.64891  Biso   1.000  C
  C85      1.0000 0.22333  0.31254  0.31254  Biso   1.000  C
  C86      1.0000 0.16881  0.35109  0.35109  Biso   1.000  C
  C87      1.0000 0.77667  0.31254  0.68746  Biso   1.000  C
  C88      1.0000 0.83119  0.35109  0.64891  Biso   1.000  C
  C89      1.0000 0.68746  0.68746  0.22333  Biso   1.000  C
  C90      1.0000 0.64891  0.64891  0.16881  Biso   1.000  C
  C91      1.0000 0.68746  0.31254  0.77667  Biso   1.000  C
  C92      1.0000 0.64891  0.35109  0.83119  Biso   1.000  C
  C93      1.0000 0.31254  0.68746  0.77667  Biso   1.000  C
  C94      1.0000 0.35109  0.64891  0.83119  Biso   1.000  C
  C95      1.0000 0.31254  0.31254  0.22333  Biso   1.000  C
  C96      1.0000 0.35109  0.35109  0.16881  Biso   1.000  C
  C97      1.0000 0.75086  0.75086  0.66067  Biso   1.000  C
  C98      1.0000 0.24914  0.24914  0.66067  Biso   1.000  C
  C99      1.0000 0.24914  0.75086  0.33933  Biso   1.000  C
  C100     1.0000 0.75086  0.24914  0.33933  Biso   1.000  C
  C101     1.0000 0.66067  0.75086  0.75086  Biso   1.000  C
  C102     1.0000 0.66067  0.24914  0.24914  Biso   1.000  C
  C103     1.0000 0.33933  0.24914  0.75086  Biso   1.000  C
  C104     1.0000 0.33933  0.75086  0.24914  Biso   1.000  C
  C105     1.0000 0.75086  0.66067  0.75086  Biso   1.000  C
  C106     1.0000 0.24914  0.66067  0.24914  Biso   1.000  C
  C107     1.0000 0.75086  0.33933  0.24914  Biso   1.000  C
  C108     1.0000 0.24914  0.33933  0.75086  Biso   1.000  C
  C109     1.0000 0.75086  0.75086  0.33933  Biso   1.000  C
  C110     1.0000 0.24914  0.24914  0.33933  Biso   1.000  C
  C111     1.0000 0.75086  0.24914  0.66067  Biso   1.000  C
  C112     1.0000 0.24914  0.75086  0.66067  Biso   1.000  C
  C113     1.0000 0.75086  0.66067  0.24914  Biso   1.000  C
  C114     1.0000 0.24914  0.66067  0.75086  Biso   1.000  C
  C115     1.0000 0.24914  0.33933  0.24914  Biso   1.000  C
  C116     1.0000 0.75086  0.33933  0.75086  Biso   1.000  C
  C117     1.0000 0.66067  0.75086  0.24914  Biso   1.000  C
  C118     1.0000 0.66067  0.24914  0.75086  Biso   1.000  C
  C119     1.0000 0.33933  0.75086  0.75086  Biso   1.000  C
  C120     1.0000 0.33933  0.24914  0.24914  Biso   1.000  C
  N1       1.0000 0.90987  0.61883  0.56770  Biso   1.000  N
  N2       1.0000 0.09013  0.38117  0.56770  Biso   1.000  N
  N3       1.0000 0.09013  0.61883  0.43230  Biso   1.000  N
  N4       1.0000 0.90987  0.38117  0.43230  Biso   1.000  N
  N5       1.0000 0.56770  0.90987  0.61883  Biso   1.000  N
  N6       1.0000 0.56770  0.09013  0.38117  Biso   1.000  N
  N7       1.0000 0.43230  0.09013  0.61883  Biso   1.000  N
  N8       1.0000 0.43230  0.90987  0.38117  Biso   1.000  N
  N9       1.0000 0.61883  0.56770  0.90987  Biso   1.000  N
  N10      1.0000 0.38117  0.56770  0.09013  Biso   1.000  N
  N11      1.0000 0.61883  0.43230  0.09013  Biso   1.000  N
  N12      1.0000 0.38117  0.43230  0.90987  Biso   1.000  N
  N13      1.0000 0.61883  0.90987  0.43230  Biso   1.000  N
  N14      1.0000 0.38117  0.09013  0.43230  Biso   1.000  N
  N15      1.0000 0.61883  0.09013  0.56770  Biso   1.000  N
  N16      1.0000 0.38117  0.90987  0.56770  Biso   1.000  N
  N17      1.0000 0.90987  0.56770  0.38117  Biso   1.000  N
  N18      1.0000 0.09013  0.56770  0.61883  Biso   1.000  N
  N19      1.0000 0.09013  0.43230  0.38117  Biso   1.000  N
  N20      1.0000 0.90987  0.43230  0.61883  Biso   1.000  N
  N21      1.0000 0.56770  0.61883  0.09013  Biso   1.000  N
  N22      1.0000 0.56770  0.38117  0.90987  Biso   1.000  N
  N23      1.0000 0.43230  0.61883  0.90987  Biso   1.000  N
  N24      1.0000 0.43230  0.38117  0.09013  Biso   1.000  N
  N25      1.0000 0.09013  0.38117  0.43230  Biso   1.000  N
  N26      1.0000 0.90987  0.61883  0.43230  Biso   1.000  N
  N27      1.0000 0.90987  0.38117  0.56770  Biso   1.000  N
  N28      1.0000 0.09013  0.61883  0.56770  Biso   1.000  N
  N29      1.0000 0.43230  0.09013  0.38117  Biso   1.000  N
  N30      1.0000 0.43230  0.90987  0.61883  Biso   1.000  N
  N31      1.0000 0.56770  0.90987  0.38117  Biso   1.000  N
  N32      1.0000 0.56770  0.09013  0.61883  Biso   1.000  N
  N33      1.0000 0.38117  0.43230  0.09013  Biso   1.000  N
  N34      1.0000 0.61883  0.43230  0.90987  Biso   1.000  N
  N35      1.0000 0.38117  0.56770  0.90987  Biso   1.000  N
  N36      1.0000 0.61883  0.56770  0.09013  Biso   1.000  N
  N37      1.0000 0.38117  0.09013  0.56770  Biso   1.000  N
  N38      1.0000 0.61883  0.90987  0.56770  Biso   1.000  N
  N39      1.0000 0.38117  0.90987  0.43230  Biso   1.000  N
  N40      1.0000 0.61883  0.09013  0.43230  Biso   1.000  N
  N41      1.0000 0.09013  0.43230  0.61883  Biso   1.000  N
  N42      1.0000 0.90987  0.43230  0.38117  Biso   1.000  N
  N43      1.0000 0.90987  0.56770  0.61883  Biso   1.000  N
  N44      1.0000 0.09013  0.56770  0.38117  Biso   1.000  N
  N45      1.0000 0.43230  0.38117  0.90987  Biso   1.000  N
  N46      1.0000 0.43230  0.61883  0.09013  Biso   1.000  N
  N47      1.0000 0.56770  0.38117  0.09013  Biso   1.000  N
  N48      1.0000 0.56770  0.61883  0.90987  Biso   1.000  N
