data_image0
_cell_length_a       15.555
_cell_length_b       15.555
_cell_length_c       20.0304
_cell_angle_alpha    90
_cell_angle_beta     90
_cell_angle_gamma    90

_symmetry_space_group_name_H-M    P 1
_symmetry_int_tables_number       1

loop_
  _symmetry_equiv_pos_as_xyz
  'x, y, z'

loop_
  _atom_site_label
  _atom_site_occupancy
  _atom_site_fract_x
  _atom_site_fract_y
  _atom_site_fract_z
  _atom_site_thermal_displace_type
  _atom_site_B_iso_or_equiv
  _atom_site_type_symbol
  Zn1      1.0000 0.08306  0.91694  0.00000  Biso   1.000  Zn
  Zn2      1.0000 0.41694  0.58306  0.00000  Biso   1.000  Zn
  Zn3      1.0000 0.58306  0.08306  0.50000  Biso   1.000  Zn
  Zn4      1.0000 0.91694  0.41694  0.50000  Biso   1.000  Zn
  Zn5      1.0000 0.91694  0.08306  0.00000  Biso   1.000  Zn
  Zn6      1.0000 0.58306  0.41694  0.00000  Biso   1.000  Zn
  Zn7      1.0000 0.41694  0.91694  0.50000  Biso   1.000  Zn
  Zn8      1.0000 0.08306  0.58306  0.50000  Biso   1.000  Zn
  Zn9      1.0000 0.25000  0.75000  0.50000  Biso   1.000  Zn
  Zn10     1.0000 0.75000  0.25000  0.00000  Biso   1.000  Zn
  Zn11     1.0000 0.75000  0.25000  0.50000  Biso   1.000  Zn
  Zn12     1.0000 0.25000  0.75000  0.00000  Biso   1.000  Zn
  H1       1.0000 0.13887  0.95680  0.84401  Biso   1.000  H
  H2       1.0000 0.15361  0.96940  0.73643  Biso   1.000  H
  H3       1.0000 0.27743  0.05294  0.57080  Biso   1.000  H
  H4       1.0000 0.14442  0.84194  0.62089  Biso   1.000  H
  H5       1.0000 0.36113  0.54320  0.84401  Biso   1.000  H
  H6       1.0000 0.34639  0.53060  0.73643  Biso   1.000  H
  H7       1.0000 0.22257  0.44706  0.57080  Biso   1.000  H
  H8       1.0000 0.35558  0.65806  0.62089  Biso   1.000  H
  H9       1.0000 0.54320  0.13887  0.34401  Biso   1.000  H
  H10      1.0000 0.53060  0.15361  0.23643  Biso   1.000  H
  H11      1.0000 0.44706  0.27743  0.07080  Biso   1.000  H
  H12      1.0000 0.65806  0.14442  0.12089  Biso   1.000  H
  H13      1.0000 0.95680  0.36113  0.34401  Biso   1.000  H
  H14      1.0000 0.96940  0.34639  0.23643  Biso   1.000  H
  H15      1.0000 0.05294  0.22257  0.07080  Biso   1.000  H
  H16      1.0000 0.84194  0.35558  0.12089  Biso   1.000  H
  H17      1.0000 0.86113  0.45680  0.65599  Biso   1.000  H
  H18      1.0000 0.84639  0.46940  0.76357  Biso   1.000  H
  H19      1.0000 0.72257  0.55294  0.92920  Biso   1.000  H
  H20      1.0000 0.85558  0.34194  0.87911  Biso   1.000  H
  H21      1.0000 0.63887  0.04320  0.65599  Biso   1.000  H
  H22      1.0000 0.65361  0.03060  0.76357  Biso   1.000  H
  H23      1.0000 0.77743  0.94706  0.92920  Biso   1.000  H
  H24      1.0000 0.64442  0.15806  0.87911  Biso   1.000  H
  H25      1.0000 0.45680  0.63887  0.15599  Biso   1.000  H
  H26      1.0000 0.46940  0.65361  0.26357  Biso   1.000  H
  H27      1.0000 0.55294  0.77743  0.42920  Biso   1.000  H
  H28      1.0000 0.34194  0.64442  0.37911  Biso   1.000  H
  H29      1.0000 0.04320  0.86113  0.15599  Biso   1.000  H
  H30      1.0000 0.03060  0.84639  0.26357  Biso   1.000  H
  H31      1.0000 0.94706  0.72257  0.42920  Biso   1.000  H
  H32      1.0000 0.15806  0.85558  0.37911  Biso   1.000  H
  H33      1.0000 0.86113  0.04320  0.15599  Biso   1.000  H
  H34      1.0000 0.84639  0.03060  0.26357  Biso   1.000  H
  H35      1.0000 0.72257  0.94706  0.42920  Biso   1.000  H
  H36      1.0000 0.85558  0.15806  0.37911  Biso   1.000  H
  H37      1.0000 0.63887  0.45680  0.15599  Biso   1.000  H
  H38      1.0000 0.65361  0.46940  0.26357  Biso   1.000  H
  H39      1.0000 0.77743  0.55294  0.42920  Biso   1.000  H
  H40      1.0000 0.64442  0.34194  0.37911  Biso   1.000  H
  H41      1.0000 0.45680  0.86113  0.65599  Biso   1.000  H
  H42      1.0000 0.46940  0.84639  0.76357  Biso   1.000  H
  H43      1.0000 0.55294  0.72257  0.92920  Biso   1.000  H
  H44      1.0000 0.34194  0.85558  0.87911  Biso   1.000  H
  H45      1.0000 0.04320  0.63887  0.65599  Biso   1.000  H
  H46      1.0000 0.03060  0.65361  0.76357  Biso   1.000  H
  H47      1.0000 0.94706  0.77743  0.92920  Biso   1.000  H
  H48      1.0000 0.15806  0.64442  0.87911  Biso   1.000  H
  H49      1.0000 0.13887  0.54320  0.34401  Biso   1.000  H
  H50      1.0000 0.15361  0.53060  0.23643  Biso   1.000  H
  H51      1.0000 0.27743  0.44706  0.07080  Biso   1.000  H
  H52      1.0000 0.14442  0.65806  0.12089  Biso   1.000  H
  H53      1.0000 0.36113  0.95680  0.34401  Biso   1.000  H
  H54      1.0000 0.34639  0.96940  0.23643  Biso   1.000  H
  H55      1.0000 0.22257  0.05294  0.07080  Biso   1.000  H
  H56      1.0000 0.35558  0.84194  0.12089  Biso   1.000  H
  H57      1.0000 0.54320  0.36113  0.84401  Biso   1.000  H
  H58      1.0000 0.53060  0.34639  0.73643  Biso   1.000  H
  H59      1.0000 0.44706  0.22257  0.57080  Biso   1.000  H
  H60      1.0000 0.65806  0.35558  0.62089  Biso   1.000  H
  H61      1.0000 0.95680  0.13887  0.84401  Biso   1.000  H
  H62      1.0000 0.96940  0.15361  0.73643  Biso   1.000  H
  H63      1.0000 0.05294  0.27743  0.57080  Biso   1.000  H
  H64      1.0000 0.84194  0.14442  0.62089  Biso   1.000  H
  H65      1.0000 0.08400  0.08401  0.56291  Biso   1.000  H
  H66      1.0000 0.41600  0.41599  0.56291  Biso   1.000  H
  H67      1.0000 0.41599  0.08400  0.06291  Biso   1.000  H
  H68      1.0000 0.08401  0.41600  0.06291  Biso   1.000  H
  H69      1.0000 0.91600  0.58400  0.93709  Biso   1.000  H
  H70      1.0000 0.58400  0.91599  0.93709  Biso   1.000  H
  H71      1.0000 0.58400  0.58400  0.43709  Biso   1.000  H
  H72      1.0000 0.91599  0.91600  0.43709  Biso   1.000  H
  C1       1.0000 0.09615  0.99623  0.85854  Biso   1.000  C
  C2       1.0000 0.11938  0.00996  0.71295  Biso   1.000  C
  C3       1.0000 0.12814  0.01868  0.64422  Biso   1.000  C
  C4       1.0000 0.18952  0.96586  0.60836  Biso   1.000  C
  C5       1.0000 0.25987  0.99468  0.57483  Biso   1.000  C
  C6       1.0000 0.18683  0.87882  0.60234  Biso   1.000  C
  C7       1.0000 0.40385  0.50377  0.85854  Biso   1.000  C
  C8       1.0000 0.38062  0.49004  0.71295  Biso   1.000  C
  C9       1.0000 0.37186  0.48132  0.64422  Biso   1.000  C
  C10      1.0000 0.31048  0.53414  0.60836  Biso   1.000  C
  C11      1.0000 0.24013  0.50532  0.57483  Biso   1.000  C
  C12      1.0000 0.31317  0.62118  0.60234  Biso   1.000  C
  C13      1.0000 0.50377  0.09615  0.35854  Biso   1.000  C
  C14      1.0000 0.49004  0.11938  0.21295  Biso   1.000  C
  C15      1.0000 0.48132  0.12814  0.14422  Biso   1.000  C
  C16      1.0000 0.53414  0.18952  0.10836  Biso   1.000  C
  C17      1.0000 0.50532  0.25987  0.07483  Biso   1.000  C
  C18      1.0000 0.62118  0.18683  0.10234  Biso   1.000  C
  C19      1.0000 0.99623  0.40385  0.35854  Biso   1.000  C
  C20      1.0000 0.00996  0.38062  0.21295  Biso   1.000  C
  C21      1.0000 0.01868  0.37186  0.14422  Biso   1.000  C
  C22      1.0000 0.96586  0.31048  0.10836  Biso   1.000  C
  C23      1.0000 0.99468  0.24013  0.07483  Biso   1.000  C
  C24      1.0000 0.87882  0.31317  0.10234  Biso   1.000  C
  C25      1.0000 0.90385  0.49623  0.64146  Biso   1.000  C
  C26      1.0000 0.88062  0.50996  0.78705  Biso   1.000  C
  C27      1.0000 0.87186  0.51868  0.85578  Biso   1.000  C
  C28      1.0000 0.81048  0.46586  0.89164  Biso   1.000  C
  C29      1.0000 0.74013  0.49468  0.92517  Biso   1.000  C
  C30      1.0000 0.81317  0.37882  0.89766  Biso   1.000  C
  C31      1.0000 0.59615  0.00377  0.64146  Biso   1.000  C
  C32      1.0000 0.61938  0.99004  0.78705  Biso   1.000  C
  C33      1.0000 0.62814  0.98132  0.85578  Biso   1.000  C
  C34      1.0000 0.68952  0.03414  0.89164  Biso   1.000  C
  C35      1.0000 0.75987  0.00532  0.92517  Biso   1.000  C
  C36      1.0000 0.68683  0.12118  0.89766  Biso   1.000  C
  C37      1.0000 0.49623  0.59615  0.14146  Biso   1.000  C
  C38      1.0000 0.50996  0.61938  0.28705  Biso   1.000  C
  C39      1.0000 0.51868  0.62814  0.35578  Biso   1.000  C
  C40      1.0000 0.46586  0.68952  0.39164  Biso   1.000  C
  C41      1.0000 0.49468  0.75987  0.42517  Biso   1.000  C
  C42      1.0000 0.37882  0.68683  0.39766  Biso   1.000  C
  C43      1.0000 0.00377  0.90385  0.14146  Biso   1.000  C
  C44      1.0000 0.99004  0.88062  0.28705  Biso   1.000  C
  C45      1.0000 0.98132  0.87186  0.35578  Biso   1.000  C
  C46      1.0000 0.03414  0.81048  0.39164  Biso   1.000  C
  C47      1.0000 0.00532  0.74013  0.42517  Biso   1.000  C
  C48      1.0000 0.12118  0.81317  0.39766  Biso   1.000  C
  C49      1.0000 0.90385  0.00377  0.14146  Biso   1.000  C
  C50      1.0000 0.88062  0.99004  0.28705  Biso   1.000  C
  C51      1.0000 0.87186  0.98132  0.35578  Biso   1.000  C
  C52      1.0000 0.81048  0.03414  0.39164  Biso   1.000  C
  C53      1.0000 0.74013  0.00532  0.42517  Biso   1.000  C
  C54      1.0000 0.81317  0.12118  0.39766  Biso   1.000  C
  C55      1.0000 0.59615  0.49623  0.14146  Biso   1.000  C
  C56      1.0000 0.61938  0.50996  0.28705  Biso   1.000  C
  C57      1.0000 0.62814  0.51868  0.35578  Biso   1.000  C
  C58      1.0000 0.68952  0.46586  0.39164  Biso   1.000  C
  C59      1.0000 0.75987  0.49468  0.42517  Biso   1.000  C
  C60      1.0000 0.68683  0.37882  0.39766  Biso   1.000  C
  C61      1.0000 0.49623  0.90385  0.64146  Biso   1.000  C
  C62      1.0000 0.50996  0.88062  0.78705  Biso   1.000  C
  C63      1.0000 0.51868  0.87186  0.85578  Biso   1.000  C
  C64      1.0000 0.46586  0.81048  0.89164  Biso   1.000  C
  C65      1.0000 0.49468  0.74013  0.92517  Biso   1.000  C
  C66      1.0000 0.37882  0.81317  0.89766  Biso   1.000  C
  C67      1.0000 0.00377  0.59615  0.64146  Biso   1.000  C
  C68      1.0000 0.99004  0.61938  0.78705  Biso   1.000  C
  C69      1.0000 0.98132  0.62814  0.85578  Biso   1.000  C
  C70      1.0000 0.03414  0.68952  0.89164  Biso   1.000  C
  C71      1.0000 0.00532  0.75987  0.92517  Biso   1.000  C
  C72      1.0000 0.12118  0.68683  0.89766  Biso   1.000  C
  C73      1.0000 0.09615  0.50377  0.35854  Biso   1.000  C
  C74      1.0000 0.11938  0.49004  0.21295  Biso   1.000  C
  C75      1.0000 0.12814  0.48132  0.14422  Biso   1.000  C
  C76      1.0000 0.18952  0.53414  0.10836  Biso   1.000  C
  C77      1.0000 0.25987  0.50532  0.07483  Biso   1.000  C
  C78      1.0000 0.18683  0.62118  0.10234  Biso   1.000  C
  C79      1.0000 0.40385  0.99623  0.35854  Biso   1.000  C
  C80      1.0000 0.38062  0.00996  0.21295  Biso   1.000  C
  C81      1.0000 0.37186  0.01868  0.14422  Biso   1.000  C
  C82      1.0000 0.31048  0.96586  0.10836  Biso   1.000  C
  C83      1.0000 0.24013  0.99468  0.07483  Biso   1.000  C
  C84      1.0000 0.31317  0.87882  0.10234  Biso   1.000  C
  C85      1.0000 0.50377  0.40385  0.85854  Biso   1.000  C
  C86      1.0000 0.49004  0.38062  0.71295  Biso   1.000  C
  C87      1.0000 0.48132  0.37186  0.64422  Biso   1.000  C
  C88      1.0000 0.53414  0.31048  0.60836  Biso   1.000  C
  C89      1.0000 0.50532  0.24013  0.57483  Biso   1.000  C
  C90      1.0000 0.62118  0.31317  0.60234  Biso   1.000  C
  C91      1.0000 0.99623  0.09615  0.85854  Biso   1.000  C
  C92      1.0000 0.00996  0.11938  0.71295  Biso   1.000  C
  C93      1.0000 0.01868  0.12814  0.64422  Biso   1.000  C
  C94      1.0000 0.96586  0.18952  0.60836  Biso   1.000  C
  C95      1.0000 0.99468  0.25987  0.57483  Biso   1.000  C
  C96      1.0000 0.87882  0.18683  0.60234  Biso   1.000  C
  C97      1.0000 0.05145  0.05146  0.81903  Biso   1.000  C
  C98      1.0000 0.06056  0.06057  0.74734  Biso   1.000  C
  C99      1.0000 0.07804  0.07804  0.60988  Biso   1.000  C
  C100     1.0000 0.44855  0.44854  0.81903  Biso   1.000  C
  C101     1.0000 0.43944  0.43943  0.74734  Biso   1.000  C
  C102     1.0000 0.42196  0.42196  0.60988  Biso   1.000  C
  C103     1.0000 0.44854  0.05145  0.31903  Biso   1.000  C
  C104     1.0000 0.43943  0.06056  0.24734  Biso   1.000  C
  C105     1.0000 0.42196  0.07804  0.10988  Biso   1.000  C
  C106     1.0000 0.05146  0.44855  0.31903  Biso   1.000  C
  C107     1.0000 0.06057  0.43944  0.24734  Biso   1.000  C
  C108     1.0000 0.07804  0.42196  0.10988  Biso   1.000  C
  C109     1.0000 0.94855  0.55146  0.68097  Biso   1.000  C
  C110     1.0000 0.93944  0.56057  0.75266  Biso   1.000  C
  C111     1.0000 0.92196  0.57804  0.89012  Biso   1.000  C
  C112     1.0000 0.55145  0.94854  0.68097  Biso   1.000  C
  C113     1.0000 0.56056  0.93943  0.75266  Biso   1.000  C
  C114     1.0000 0.57804  0.92196  0.89012  Biso   1.000  C
  C115     1.0000 0.55146  0.55145  0.18097  Biso   1.000  C
  C116     1.0000 0.56057  0.56056  0.25266  Biso   1.000  C
  C117     1.0000 0.57804  0.57804  0.39012  Biso   1.000  C
  C118     1.0000 0.94854  0.94855  0.18097  Biso   1.000  C
  C119     1.0000 0.93943  0.93944  0.25266  Biso   1.000  C
  C120     1.0000 0.92196  0.92196  0.39012  Biso   1.000  C
  N1       1.0000 0.06899  0.00731  0.92250  Biso   1.000  N
  N2       1.0000 0.30067  0.92544  0.54809  Biso   1.000  N
  N3       1.0000 0.25553  0.85384  0.56509  Biso   1.000  N
  N4       1.0000 0.43101  0.49269  0.92250  Biso   1.000  N
  N5       1.0000 0.19933  0.57456  0.54809  Biso   1.000  N
  N6       1.0000 0.24447  0.64616  0.56509  Biso   1.000  N
  N7       1.0000 0.49269  0.06899  0.42250  Biso   1.000  N
  N8       1.0000 0.57456  0.30067  0.04809  Biso   1.000  N
  N9       1.0000 0.64616  0.25553  0.06509  Biso   1.000  N
  N10      1.0000 0.00731  0.43101  0.42250  Biso   1.000  N
  N11      1.0000 0.92544  0.19933  0.04809  Biso   1.000  N
  N12      1.0000 0.85384  0.24447  0.06509  Biso   1.000  N
  N13      1.0000 0.93101  0.50731  0.57750  Biso   1.000  N
  N14      1.0000 0.69933  0.42544  0.95191  Biso   1.000  N
  N15      1.0000 0.74447  0.35384  0.93491  Biso   1.000  N
  N16      1.0000 0.56899  0.99269  0.57750  Biso   1.000  N
  N17      1.0000 0.80067  0.07456  0.95191  Biso   1.000  N
  N18      1.0000 0.75553  0.14616  0.93491  Biso   1.000  N
  N19      1.0000 0.50731  0.56899  0.07750  Biso   1.000  N
  N20      1.0000 0.42544  0.80067  0.45191  Biso   1.000  N
  N21      1.0000 0.35384  0.75553  0.43491  Biso   1.000  N
  N22      1.0000 0.99269  0.93101  0.07750  Biso   1.000  N
  N23      1.0000 0.07456  0.69933  0.45191  Biso   1.000  N
  N24      1.0000 0.14616  0.74447  0.43491  Biso   1.000  N
  N25      1.0000 0.93101  0.99269  0.07750  Biso   1.000  N
  N26      1.0000 0.69933  0.07456  0.45191  Biso   1.000  N
  N27      1.0000 0.74447  0.14616  0.43491  Biso   1.000  N
  N28      1.0000 0.56899  0.50731  0.07750  Biso   1.000  N
  N29      1.0000 0.80067  0.42544  0.45191  Biso   1.000  N
  N30      1.0000 0.75553  0.35384  0.43491  Biso   1.000  N
  N31      1.0000 0.50731  0.93101  0.57750  Biso   1.000  N
  N32      1.0000 0.42544  0.69933  0.95191  Biso   1.000  N
  N33      1.0000 0.35384  0.74447  0.93491  Biso   1.000  N
  N34      1.0000 0.99269  0.56899  0.57750  Biso   1.000  N
  N35      1.0000 0.07456  0.80067  0.95191  Biso   1.000  N
  N36      1.0000 0.14616  0.75553  0.93491  Biso   1.000  N
  N37      1.0000 0.06899  0.49269  0.42250  Biso   1.000  N
  N38      1.0000 0.30067  0.57456  0.04809  Biso   1.000  N
  N39      1.0000 0.25553  0.64616  0.06509  Biso   1.000  N
  N40      1.0000 0.43101  0.00731  0.42250  Biso   1.000  N
  N41      1.0000 0.19933  0.92544  0.04809  Biso   1.000  N
  N42      1.0000 0.24447  0.85384  0.06509  Biso   1.000  N
  N43      1.0000 0.49269  0.43101  0.92250  Biso   1.000  N
  N44      1.0000 0.57456  0.19933  0.54809  Biso   1.000  N
  N45      1.0000 0.64616  0.24447  0.56509  Biso   1.000  N
  N46      1.0000 0.00731  0.06899  0.92250  Biso   1.000  N
  N47      1.0000 0.92544  0.30067  0.54809  Biso   1.000  N
  N48      1.0000 0.85384  0.25553  0.56509  Biso   1.000  N
