data_image0
_cell_length_a       7.23347
_cell_length_b       7.6273
_cell_length_c       11.2437
_cell_angle_alpha    107.444
_cell_angle_beta     106.267
_cell_angle_gamma    97.0373

_symmetry_space_group_name_H-M    P 1
_symmetry_int_tables_number       1

loop_
  _symmetry_equiv_pos_as_xyz
  'x, y, z'

loop_
  _atom_site_label
  _atom_site_occupancy
  _atom_site_fract_x
  _atom_site_fract_y
  _atom_site_fract_z
  _atom_site_thermal_displace_type
  _atom_site_B_iso_or_equiv
  _atom_site_type_symbol
  Ga1      1.0000 0.29473  0.29473  0.58946  Biso   1.000  Ga
  Ga2      1.0000 0.70527  0.70527  0.41054  Biso   1.000  Ga
  Ga3      1.0000 0.00000  0.50000  0.50000  Biso   1.000  Ga
  Ga4      1.0000 0.50000  0.00000  0.50000  Biso   1.000  Ga
  H1       1.0000 0.99276  0.30902  0.64852  Biso   1.000  H
  H2       1.0000 0.14200  0.97300  0.47800  Biso   1.000  H
  H3       1.0000 0.65576  0.33950  0.64852  Biso   1.000  H
  H4       1.0000 0.33600  0.50500  0.47800  Biso   1.000  H
  H5       1.0000 0.00724  0.69098  0.35148  Biso   1.000  H
  H6       1.0000 0.85800  0.02700  0.52200  Biso   1.000  H
  H7       1.0000 0.34424  0.66050  0.35148  Biso   1.000  H
  H8       1.0000 0.66400  0.49500  0.52200  Biso   1.000  H
  H9       1.0000 0.54900  0.29800  0.00000  Biso   1.000  H
  H10      1.0000 0.45100  0.70200  0.00000  Biso   1.000  H
  C1       1.0000 0.42386  0.06756  0.74912  Biso   1.000  C
  C2       1.0000 0.45103  0.03383  0.87666  Biso   1.000  C
  C3       1.0000 0.32526  0.68156  0.74912  Biso   1.000  C
  C4       1.0000 0.42563  0.84283  0.87666  Biso   1.000  C
  C5       1.0000 0.57614  0.93244  0.25088  Biso   1.000  C
  C6       1.0000 0.54897  0.96617  0.12334  Biso   1.000  C
  C7       1.0000 0.67474  0.31844  0.25088  Biso   1.000  C
  C8       1.0000 0.57437  0.15717  0.12334  Biso   1.000  C
  C9       1.0000 0.52610  0.18000  0.00000  Biso   1.000  C
  C10      1.0000 0.47390  0.82000  0.00000  Biso   1.000  C
  O1       1.0000 0.02459  0.30595  0.58012  Biso   1.000  O
  O2       1.0000 0.23272  0.04307  0.46386  Biso   1.000  O
  O3       1.0000 0.33174  0.19528  0.73744  Biso   1.000  O
  O4       1.0000 0.50260  0.97227  0.66956  Biso   1.000  O
  O5       1.0000 0.55553  0.27417  0.58012  Biso   1.000  O
  O6       1.0000 0.23114  0.42079  0.46386  Biso   1.000  O
  O7       1.0000 0.40570  0.54216  0.73744  Biso   1.000  O
  O8       1.0000 0.16696  0.69729  0.66956  Biso   1.000  O
  O9       1.0000 0.97541  0.69405  0.41988  Biso   1.000  O
  O10      1.0000 0.76728  0.95693  0.53614  Biso   1.000  O
  O11      1.0000 0.66826  0.80472  0.26256  Biso   1.000  O
  O12      1.0000 0.49740  0.02773  0.33044  Biso   1.000  O
  O13      1.0000 0.44447  0.72583  0.41988  Biso   1.000  O
  O14      1.0000 0.76886  0.57921  0.53614  Biso   1.000  O
  O15      1.0000 0.59430  0.45784  0.26256  Biso   1.000  O
  O16      1.0000 0.83304  0.30271  0.33044  Biso   1.000  O
