data_image0
_cell_length_a       15.224
_cell_length_b       15.259
_cell_length_c       18.059
_cell_angle_alpha    91.84
_cell_angle_beta     96.69
_cell_angle_gamma    98.28

_symmetry_space_group_name_H-M    P 1
_symmetry_int_tables_number       1

loop_
  _symmetry_equiv_pos_as_xyz
  'x, y, z'

loop_
  _atom_site_label
  _atom_site_occupancy
  _atom_site_fract_x
  _atom_site_fract_y
  _atom_site_fract_z
  _atom_site_thermal_displace_type
  _atom_site_B_iso_or_equiv
  _atom_site_type_symbol
  Zn1      1.0000 0.77314  0.67275  0.75627  Biso   1.000  Zn
  Zn2      1.0000 0.75079  0.66257  0.59186  Biso   1.000  Zn
  H1       1.0000 0.45860  0.66200  0.55940  Biso   1.000  H
  H2       1.0000 0.30960  0.66380  0.56270  Biso   1.000  H
  H3       1.0000 0.34810  0.65350  0.78190  Biso   1.000  H
  H4       1.0000 0.48900  0.63000  0.77450  Biso   1.000  H
  H5       1.0000 0.06590  0.65290  0.79060  Biso   1.000  H
  H6       1.0000 0.21020  0.63880  0.78190  Biso   1.000  H
  H7       1.0000 0.18390  0.70090  0.57190  Biso   1.000  H
  H8       1.0000 0.03540  0.70760  0.57680  Biso   1.000  H
  H9       1.0000 0.81300  0.39520  0.77730  Biso   1.000  H
  H10      1.0000 0.81690  0.24530  0.77560  Biso   1.000  H
  H11      1.0000 0.69770  0.22030  0.56830  Biso   1.000  H
  H12      1.0000 0.70010  0.37000  0.56810  Biso   1.000  H
  H13      1.0000 0.75820  0.94590  0.56160  Biso   1.000  H
  H14      1.0000 0.75920  0.09600  0.56150  Biso   1.000  H
  H15      1.0000 0.77470  0.10720  0.78340  Biso   1.000  H
  H16      1.0000 0.77380  0.95750  0.78420  Biso   1.000  H
  H17      1.0000 0.75210  0.54550  0.87320  Biso   1.000  H
  H18      1.0000 0.75240  0.53890  0.99910  Biso   1.000  H
  H19      1.0000 0.79210  0.80530  0.01490  Biso   1.000  H
  H20      1.0000 0.78880  0.80280  0.88690  Biso   1.000  H
  H21      1.0000 0.79340  0.78870  0.47750  Biso   1.000  H
  H22      1.0000 0.80030  0.79620  0.35170  Biso   1.000  H
  H23      1.0000 0.73400  0.53410  0.33340  Biso   1.000  H
  H24      1.0000 0.72580  0.53510  0.45980  Biso   1.000  H
  C1       1.0000 0.49270  0.65150  0.66550  Biso   1.000  C
  C2       1.0000 0.43650  0.65870  0.60530  Biso   1.000  C
  C3       1.0000 0.34680  0.66160  0.60700  Biso   1.000  C
  C4       1.0000 0.31260  0.66120  0.67280  Biso   1.000  C
  C5       1.0000 0.36910  0.65260  0.73560  Biso   1.000  C
  C6       1.0000 0.45420  0.64290  0.73160  Biso   1.000  C
  C7       1.0000 0.59030  0.65190  0.66300  Biso   1.000  C
  C8       1.0000 0.03130  0.67880  0.68280  Biso   1.000  C
  C9       1.0000 0.08790  0.66040  0.74490  Biso   1.000  C
  C10      1.0000 0.17560  0.65330  0.73940  Biso   1.000  C
  C11      1.0000 0.21580  0.66570  0.67620  Biso   1.000  C
  C12      1.0000 0.16020  0.68850  0.61620  Biso   1.000  C
  C13      1.0000 0.07010  0.69360  0.61940  Biso   1.000  C
  C14      1.0000 0.93450  0.68020  0.68290  Biso   1.000  C
  C15      1.0000 0.75780  0.40010  0.67170  Biso   1.000  C
  C16      1.0000 0.79120  0.36070  0.73380  Biso   1.000  C
  C17      1.0000 0.79300  0.27010  0.73280  Biso   1.000  C
  C18      1.0000 0.76070  0.21640  0.67120  Biso   1.000  C
  C19      1.0000 0.72360  0.25530  0.61050  Biso   1.000  C
  C20      1.0000 0.72390  0.34540  0.61100  Biso   1.000  C
  C21      1.0000 0.75690  0.49780  0.66970  Biso   1.000  C
  C22      1.0000 0.76570  0.93460  0.67280  Biso   1.000  C
  C23      1.0000 0.76120  0.97800  0.60670  Biso   1.000  C
  C24      1.0000 0.76100  0.06830  0.60670  Biso   1.000  C
  C25      1.0000 0.76330  0.11910  0.67210  Biso   1.000  C
  C26      1.0000 0.77020  0.07490  0.73830  Biso   1.000  C
  C27      1.0000 0.77040  0.98500  0.73890  Biso   1.000  C
  C28      1.0000 0.76610  0.83690  0.67390  Biso   1.000  C
  C29      1.0000 0.75990  0.59810  0.90210  Biso   1.000  C
  C30      1.0000 0.76020  0.59370  0.97770  Biso   1.000  C
  C31      1.0000 0.77210  0.67100  0.02200  Biso   1.000  C
  C32      1.0000 0.78350  0.75160  0.98720  Biso   1.000  C
  C33      1.0000 0.78170  0.74940  0.91040  Biso   1.000  C
  C34      1.0000 0.77150  0.66900  0.10510  Biso   1.000  C
  C35      1.0000 0.76870  0.66640  0.24610  Biso   1.000  C
  C36      1.0000 0.77920  0.73670  0.44750  Biso   1.000  C
  C37      1.0000 0.78400  0.74200  0.37220  Biso   1.000  C
  C38      1.0000 0.76390  0.66440  0.32730  Biso   1.000  C
  C39      1.0000 0.74450  0.58770  0.36120  Biso   1.000  C
  C40      1.0000 0.74020  0.58860  0.43760  Biso   1.000  C
  N1       1.0000 0.77010  0.67380  0.86850  Biso   1.000  N
  N2       1.0000 0.76290  0.58920  0.13560  Biso   1.000  N
  N3       1.0000 0.75970  0.58850  0.20770  Biso   1.000  N
  N4       1.0000 0.78260  0.74440  0.21590  Biso   1.000  N
  N5       1.0000 0.78470  0.74730  0.14330  Biso   1.000  N
  N6       1.0000 0.75570  0.66250  0.47950  Biso   1.000  N
  O1       1.0000 0.63800  0.65090  0.72510  Biso   1.000  O
  O2       1.0000 0.61900  0.65430  0.60100  Biso   1.000  O
  O3       1.0000 0.90770  0.68830  0.74620  Biso   1.000  O
  O4       1.0000 0.88530  0.67250  0.62220  Biso   1.000  O
  O5       1.0000 0.77300  0.54000  0.73217  Biso   1.000  O
  O6       1.0000 0.74260  0.53050  0.60861  Biso   1.000  O
  O7       1.0000 0.77060  0.80160  0.73554  Biso   1.000  O
  O8       1.0000 0.76190  0.79570  0.61154  Biso   1.000  O
  Zn3      1.0000 0.01109  0.00553  0.08225  Biso   1.000  Zn
  Zn4      1.0000 0.98891  0.99447  0.91775  Biso   1.000  Zn
  H25      1.0000 0.01250  0.28820  0.10950  Biso   1.000  H
  H26      1.0000 0.01420  0.43860  0.11120  Biso   1.000  H
  H27      1.0000 0.98590  0.42720  0.88700  Biso   1.000  H
  H28      1.0000 0.98680  0.27820  0.88640  Biso   1.000  H
  H29      1.0000 0.31050  0.01800  0.11890  Biso   1.000  H
  H30      1.0000 0.45320  0.99900  0.11110  Biso   1.000  H
  H31      1.0000 0.41780  0.02420  0.89490  Biso   1.000  H
  H32      1.0000 0.27310  0.03410  0.90280  Biso   1.000  H
  H33      1.0000 0.02890  0.13650  0.21480  Biso   1.000  H
  H34      1.0000 0.02270  0.13670  0.34110  Biso   1.000  H
  H35      1.0000 0.97410  0.87180  0.32580  Biso   1.000  H
  H36      1.0000 0.97800  0.87890  0.19950  Biso   1.000  H
  H37      1.0000 0.98750  0.71180  0.89050  Biso   1.000  H
  H38      1.0000 0.98580  0.56140  0.88880  Biso   1.000  H
  H39      1.0000 0.01410  0.57280  0.11300  Biso   1.000  H
  H40      1.0000 0.01320  0.72180  0.11360  Biso   1.000  H
  H41      1.0000 0.68950  0.98200  0.88110  Biso   1.000  H
  H42      1.0000 0.54680  0.00100  0.88890  Biso   1.000  H
  H43      1.0000 0.58220  0.97580  0.10510  Biso   1.000  H
  H44      1.0000 0.72690  0.96590  0.09720  Biso   1.000  H
  H45      1.0000 0.97110  0.86350  0.78520  Biso   1.000  H
  H46      1.0000 0.97730  0.86330  0.65890  Biso   1.000  H
  H47      1.0000 0.02590  0.12820  0.67420  Biso   1.000  H
  H48      1.0000 0.02200  0.12110  0.80050  Biso   1.000  H
  C41      1.0000 0.99820  0.26670  0.99820  Biso   1.000  C
  C42      1.0000 0.00710  0.31630  0.06460  Biso   1.000  C
  C43      1.0000 0.00800  0.40680  0.06570  Biso   1.000  C
  C44      1.0000 0.00000  0.45180  0.99940  Biso   1.000  C
  C45      1.0000 0.99150  0.39980  0.93220  Biso   1.000  C
  C46      1.0000 0.99140  0.31030  0.93170  Biso   1.000  C
  C47      1.0000 0.99920  0.16840  0.99900  Biso   1.000  C
  C48      1.0000 0.27260  0.01810  0.00990  Biso   1.000  C
  C49      1.0000 0.33030  0.01430  0.07230  Biso   1.000  C
  C50      1.0000 0.41620  0.00510  0.06740  Biso   1.000  C
  C51      1.0000 0.45130  0.00440  0.00080  Biso   1.000  C
  C52      1.0000 0.39620  0.01850  0.94090  Biso   1.000  C
  C53      1.0000 0.30940  0.02470  0.94610  Biso   1.000  C
  C54      1.0000 0.17380  0.01830  0.01330  Biso   1.000  C
  C55      1.0000 0.01730  0.08270  0.23710  Biso   1.000  C
  C56      1.0000 0.01460  0.08310  0.31330  Biso   1.000  C
  C57      1.0000 0.00000  0.00490  0.34830  Biso   1.000  C
  C58      1.0000 0.98540  0.92640  0.30450  Biso   1.000  C
  C59      1.0000 0.98790  0.93160  0.22860  Biso   1.000  C
  C60      1.0000 0.00030  0.00190  0.42970  Biso   1.000  C
  C61      1.0000 0.00180  0.73330  0.00180  Biso   1.000  C
  C62      1.0000 0.99290  0.68370  0.93540  Biso   1.000  C
  C63      1.0000 0.99200  0.59320  0.93430  Biso   1.000  C
  C64      1.0000 0.00000  0.54820  0.00060  Biso   1.000  C
  C65      1.0000 0.00850  0.60020  0.06780  Biso   1.000  C
  C66      1.0000 0.00860  0.68970  0.06830  Biso   1.000  C
  C67      1.0000 0.00080  0.83160  0.00100  Biso   1.000  C
  C68      1.0000 0.72740  0.98190  0.99010  Biso   1.000  C
  C69      1.0000 0.66970  0.98570  0.92770  Biso   1.000  C
  C70      1.0000 0.58380  0.99490  0.93260  Biso   1.000  C
  C71      1.0000 0.54870  0.99560  0.99920  Biso   1.000  C
  C72      1.0000 0.60380  0.98150  0.05910  Biso   1.000  C
  C73      1.0000 0.69060  0.97530  0.05390  Biso   1.000  C
  C74      1.0000 0.82620  0.98170  0.98670  Biso   1.000  C
  C75      1.0000 0.98270  0.91730  0.76290  Biso   1.000  C
  C76      1.0000 0.98540  0.91690  0.68670  Biso   1.000  C
  C77      1.0000 0.00000  0.99510  0.65170  Biso   1.000  C
  C78      1.0000 0.01460  0.07360  0.69550  Biso   1.000  C
  C79      1.0000 0.01210  0.06840  0.77140  Biso   1.000  C
  C80      1.0000 0.99970  0.99810  0.57030  Biso   1.000  C
  N7       1.0000 0.00380  0.00760  0.19410  Biso   1.000  N
  N8       1.0000 0.01510  0.08020  0.46890  Biso   1.000  N
  N9       1.0000 0.98520  0.92320  0.45810  Biso   1.000  N
  N10      1.0000 0.99620  0.99240  0.80590  Biso   1.000  N
  N11      1.0000 0.98490  0.91980  0.53110  Biso   1.000  N
  N12      1.0000 0.01480  0.07680  0.54190  Biso   1.000  N
  O9       1.0000 0.01060  0.13510  0.06160  Biso   1.000  O
  O10      1.0000 0.98990  0.12690  0.93666  Biso   1.000  O
  O11      1.0000 0.14620  0.02130  0.07550  Biso   1.000  O
  O12      1.0000 0.12500  0.01420  0.95100  Biso   1.000  O
  O13      1.0000 0.98940  0.86490  0.93840  Biso   1.000  O
  O14      1.0000 0.01010  0.87310  0.06334  Biso   1.000  O
  O15      1.0000 0.85380  0.97870  0.92450  Biso   1.000  O
  O16      1.0000 0.87500  0.98580  0.04900  Biso   1.000  O
  Zn5      1.0000 0.22686  0.32725  0.24373  Biso   1.000  Zn
  Zn6      1.0000 0.24921  0.33743  0.40814  Biso   1.000  Zn
  H49      1.0000 0.54140  0.33800  0.44060  Biso   1.000  H
  H50      1.0000 0.69040  0.33620  0.43730  Biso   1.000  H
  H51      1.0000 0.65190  0.34650  0.21810  Biso   1.000  H
  H52      1.0000 0.51100  0.37000  0.22550  Biso   1.000  H
  H53      1.0000 0.93410  0.34710  0.20940  Biso   1.000  H
  H54      1.0000 0.78980  0.36120  0.21810  Biso   1.000  H
  H55      1.0000 0.81610  0.29910  0.42810  Biso   1.000  H
  H56      1.0000 0.96460  0.29240  0.42320  Biso   1.000  H
  H57      1.0000 0.18700  0.60480  0.22270  Biso   1.000  H
  H58      1.0000 0.18310  0.75470  0.22440  Biso   1.000  H
  H59      1.0000 0.30230  0.77970  0.43170  Biso   1.000  H
  H60      1.0000 0.29990  0.63000  0.43190  Biso   1.000  H
  H61      1.0000 0.24180  0.05410  0.43840  Biso   1.000  H
  H62      1.0000 0.24080  0.90400  0.43850  Biso   1.000  H
  H63      1.0000 0.22530  0.89280  0.21660  Biso   1.000  H
  H64      1.0000 0.22620  0.04250  0.21580  Biso   1.000  H
  H65      1.0000 0.24790  0.45450  0.12680  Biso   1.000  H
  H66      1.0000 0.24760  0.46110  0.00090  Biso   1.000  H
  H67      1.0000 0.20790  0.19470  0.98510  Biso   1.000  H
  H68      1.0000 0.21120  0.19720  0.11310  Biso   1.000  H
  H69      1.0000 0.20660  0.21130  0.52250  Biso   1.000  H
  H70      1.0000 0.19970  0.20380  0.64830  Biso   1.000  H
  H71      1.0000 0.26600  0.46590  0.66660  Biso   1.000  H
  H72      1.0000 0.27420  0.46490  0.54020  Biso   1.000  H
  C81      1.0000 0.50730  0.34850  0.33450  Biso   1.000  C
  C82      1.0000 0.56350  0.34130  0.39470  Biso   1.000  C
  C83      1.0000 0.65320  0.33840  0.39300  Biso   1.000  C
  C84      1.0000 0.68740  0.33880  0.32720  Biso   1.000  C
  C85      1.0000 0.63090  0.34740  0.26440  Biso   1.000  C
  C86      1.0000 0.54580  0.35710  0.26840  Biso   1.000  C
  C87      1.0000 0.40970  0.34810  0.33700  Biso   1.000  C
  C88      1.0000 0.96870  0.32120  0.31720  Biso   1.000  C
  C89      1.0000 0.91210  0.33960  0.25510  Biso   1.000  C
  C90      1.0000 0.82440  0.34670  0.26060  Biso   1.000  C
  C91      1.0000 0.78420  0.33430  0.32380  Biso   1.000  C
  C92      1.0000 0.83980  0.31150  0.38380  Biso   1.000  C
  C93      1.0000 0.92990  0.30640  0.38060  Biso   1.000  C
  C94      1.0000 0.06550  0.31980  0.31710  Biso   1.000  C
  C95      1.0000 0.24220  0.59990  0.32830  Biso   1.000  C
  C96      1.0000 0.20880  0.63930  0.26620  Biso   1.000  C
  C97      1.0000 0.20700  0.72990  0.26720  Biso   1.000  C
  C98      1.0000 0.23930  0.78360  0.32880  Biso   1.000  C
  C99      1.0000 0.27640  0.74470  0.38950  Biso   1.000  C
  C100     1.0000 0.27610  0.65460  0.38900  Biso   1.000  C
  C101     1.0000 0.24310  0.50220  0.33030  Biso   1.000  C
  C102     1.0000 0.23430  0.06540  0.32720  Biso   1.000  C
  C103     1.0000 0.23880  0.02200  0.39330  Biso   1.000  C
  C104     1.0000 0.23900  0.93170  0.39330  Biso   1.000  C
  C105     1.0000 0.23670  0.88090  0.32790  Biso   1.000  C
  C106     1.0000 0.22980  0.92510  0.26170  Biso   1.000  C
  C107     1.0000 0.22960  0.01500  0.26110  Biso   1.000  C
  C108     1.0000 0.23390  0.16310  0.32610  Biso   1.000  C
  C109     1.0000 0.24010  0.40190  0.09790  Biso   1.000  C
  C110     1.0000 0.23980  0.40630  0.02230  Biso   1.000  C
  C111     1.0000 0.22790  0.32900  0.97800  Biso   1.000  C
  C112     1.0000 0.21650  0.24840  0.01280  Biso   1.000  C
  C113     1.0000 0.21830  0.25060  0.08960  Biso   1.000  C
  C114     1.0000 0.22850  0.33100  0.89490  Biso   1.000  C
  C115     1.0000 0.23130  0.33360  0.75390  Biso   1.000  C
  C116     1.0000 0.22080  0.26330  0.55250  Biso   1.000  C
  C117     1.0000 0.21600  0.25800  0.62780  Biso   1.000  C
  C118     1.0000 0.23610  0.33560  0.67270  Biso   1.000  C
  C119     1.0000 0.25550  0.41230  0.63880  Biso   1.000  C
  C120     1.0000 0.25980  0.41140  0.56240  Biso   1.000  C
  N13      1.0000 0.22990  0.32620  0.13150  Biso   1.000  N
  N14      1.0000 0.23710  0.41080  0.86440  Biso   1.000  N
  N15      1.0000 0.24030  0.41150  0.79230  Biso   1.000  N
  N16      1.0000 0.21740  0.25560  0.78410  Biso   1.000  N
  N17      1.0000 0.21530  0.25270  0.85670  Biso   1.000  N
  N18      1.0000 0.24430  0.33750  0.52050  Biso   1.000  N
  O17      1.0000 0.36200  0.34910  0.27490  Biso   1.000  O
  O18      1.0000 0.38100  0.34570  0.39900  Biso   1.000  O
  O19      1.0000 0.09230  0.31170  0.25380  Biso   1.000  O
  O20      1.0000 0.11470  0.32750  0.37780  Biso   1.000  O
  O21      1.0000 0.22700  0.46000  0.26783  Biso   1.000  O
  O22      1.0000 0.25740  0.46950  0.39139  Biso   1.000  O
  O23      1.0000 0.22940  0.19840  0.26446  Biso   1.000  O
  O24      1.0000 0.23810  0.20430  0.38846  Biso   1.000  O
