data_image0
_cell_length_a       13.389
_cell_length_b       14.484
_cell_length_c       14.7094
_cell_angle_alpha    91.4919
_cell_angle_beta     90
_cell_angle_gamma    90

_symmetry_space_group_name_H-M    P 1
_symmetry_int_tables_number       1

loop_
  _symmetry_equiv_pos_as_xyz
  'x, y, z'

loop_
  _atom_site_label
  _atom_site_occupancy
  _atom_site_fract_x
  _atom_site_fract_y
  _atom_site_fract_z
  _atom_site_thermal_displace_type
  _atom_site_B_iso_or_equiv
  _atom_site_type_symbol
  Mg1      1.0000 0.94059  0.75790  0.00609  Biso   1.000  Mg
  Mg2      1.0000 0.44059  0.74210  0.49391  Biso   1.000  Mg
  Mg3      1.0000 0.05941  0.24210  0.99391  Biso   1.000  Mg
  Mg4      1.0000 0.55941  0.25790  0.50609  Biso   1.000  Mg
  Mg5      1.0000 0.00000  0.00000  0.00000  Biso   1.000  Mg
  Mg6      1.0000 0.50000  0.50000  0.50000  Biso   1.000  Mg
  H1       1.0000 0.82640  0.64530  0.06370  Biso   1.000  H
  H2       1.0000 0.78800  0.64000  0.98030  Biso   1.000  H
  H3       1.0000 0.61110  0.68250  0.59300  Biso   1.000  H
  H4       1.0000 0.57380  0.13730  0.33270  Biso   1.000  H
  H5       1.0000 0.60520  0.15450  0.24400  Biso   1.000  H
  H6       1.0000 0.71010  0.15890  0.73950  Biso   1.000  H
  H7       1.0000 0.61150  0.13950  0.69040  Biso   1.000  H
  H8       1.0000 0.76370  0.07060  0.18630  Biso   1.000  H
  H9       1.0000 0.56430  0.97510  0.36450  Biso   1.000  H
  H10      1.0000 0.74030  0.79790  0.22420  Biso   1.000  H
  H11      1.0000 0.74220  0.78210  0.75910  Biso   1.000  H
  H12      1.0000 0.59700  0.97780  0.62320  Biso   1.000  H
  H13      1.0000 0.79670  0.04990  0.81520  Biso   1.000  H
  H14      1.0000 0.08070  0.84940  0.06070  Biso   1.000  H
  H15      1.0000 0.09160  0.84570  0.97000  Biso   1.000  H
  H16      1.0000 0.32640  0.85470  0.43630  Biso   1.000  H
  H17      1.0000 0.28800  0.86000  0.51970  Biso   1.000  H
  H18      1.0000 0.11110  0.81750  0.90700  Biso   1.000  H
  H19      1.0000 0.07380  0.36270  0.16730  Biso   1.000  H
  H20      1.0000 0.10520  0.34550  0.25600  Biso   1.000  H
  H21      1.0000 0.21010  0.34110  0.76050  Biso   1.000  H
  H22      1.0000 0.11150  0.36050  0.80960  Biso   1.000  H
  H23      1.0000 0.26370  0.42940  0.31370  Biso   1.000  H
  H24      1.0000 0.06430  0.52490  0.13550  Biso   1.000  H
  H25      1.0000 0.24030  0.70210  0.27580  Biso   1.000  H
  H26      1.0000 0.24220  0.71790  0.74090  Biso   1.000  H
  H27      1.0000 0.09700  0.52220  0.87680  Biso   1.000  H
  H28      1.0000 0.29670  0.45010  0.68480  Biso   1.000  H
  H29      1.0000 0.58070  0.65060  0.43930  Biso   1.000  H
  H30      1.0000 0.59160  0.65430  0.53000  Biso   1.000  H
  H31      1.0000 0.17360  0.35470  0.93630  Biso   1.000  H
  H32      1.0000 0.21200  0.36000  0.01970  Biso   1.000  H
  H33      1.0000 0.38890  0.31750  0.40700  Biso   1.000  H
  H34      1.0000 0.42620  0.86270  0.66730  Biso   1.000  H
  H35      1.0000 0.39480  0.84550  0.75600  Biso   1.000  H
  H36      1.0000 0.28990  0.84110  0.26050  Biso   1.000  H
  H37      1.0000 0.38850  0.86050  0.30960  Biso   1.000  H
  H38      1.0000 0.23630  0.92940  0.81370  Biso   1.000  H
  H39      1.0000 0.43570  0.02490  0.63550  Biso   1.000  H
  H40      1.0000 0.25970  0.20210  0.77580  Biso   1.000  H
  H41      1.0000 0.25780  0.21790  0.24090  Biso   1.000  H
  H42      1.0000 0.40300  0.02220  0.37680  Biso   1.000  H
  H43      1.0000 0.20330  0.95010  0.18480  Biso   1.000  H
  H44      1.0000 0.91930  0.15060  0.93930  Biso   1.000  H
  H45      1.0000 0.90840  0.15430  0.03000  Biso   1.000  H
  H46      1.0000 0.67360  0.14530  0.56370  Biso   1.000  H
  H47      1.0000 0.71200  0.14000  0.48030  Biso   1.000  H
  H48      1.0000 0.88890  0.18250  0.09300  Biso   1.000  H
  H49      1.0000 0.92620  0.63730  0.83270  Biso   1.000  H
  H50      1.0000 0.89480  0.65450  0.74400  Biso   1.000  H
  H51      1.0000 0.78990  0.65890  0.23950  Biso   1.000  H
  H52      1.0000 0.88850  0.63950  0.19040  Biso   1.000  H
  H53      1.0000 0.73630  0.57060  0.68630  Biso   1.000  H
  H54      1.0000 0.93570  0.47510  0.86450  Biso   1.000  H
  H55      1.0000 0.75970  0.29790  0.72420  Biso   1.000  H
  H56      1.0000 0.75780  0.28210  0.25910  Biso   1.000  H
  H57      1.0000 0.90300  0.47780  0.12320  Biso   1.000  H
  H58      1.0000 0.70330  0.54990  0.31520  Biso   1.000  H
  H59      1.0000 0.41930  0.34940  0.56070  Biso   1.000  H
  H60      1.0000 0.40840  0.34570  0.47000  Biso   1.000  H
  C1       1.0000 0.84613  0.91249  0.12465  Biso   1.000  C
  C2       1.0000 0.76470  0.93083  0.19423  Biso   1.000  C
  C3       1.0000 0.73382  0.02083  0.21435  Biso   1.000  C
  C4       1.0000 0.65817  0.03492  0.27665  Biso   1.000  C
  C5       1.0000 0.61410  0.96336  0.32167  Biso   1.000  C
  C6       1.0000 0.64512  0.87312  0.30228  Biso   1.000  C
  C7       1.0000 0.59826  0.79327  0.35086  Biso   1.000  C
  C8       1.0000 0.71990  0.85800  0.23804  Biso   1.000  C
  C9       1.0000 0.85493  0.88877  0.87119  Biso   1.000  C
  C10      1.0000 0.78077  0.91187  0.79837  Biso   1.000  C
  C11      1.0000 0.73005  0.84417  0.74852  Biso   1.000  C
  C12      1.0000 0.66120  0.86871  0.68284  Biso   1.000  C
  C13      1.0000 0.60859  0.79507  0.62753  Biso   1.000  C
  C14      1.0000 0.64283  0.96138  0.66745  Biso   1.000  C
  C15      1.0000 0.69227  0.02968  0.71763  Biso   1.000  C
  C16      1.0000 0.76210  0.00443  0.78234  Biso   1.000  C
  C17      1.0000 0.34613  0.58751  0.37535  Biso   1.000  C
  C18      1.0000 0.26470  0.56917  0.30577  Biso   1.000  C
  C19      1.0000 0.23382  0.47917  0.28565  Biso   1.000  C
  C20      1.0000 0.15817  0.46508  0.22335  Biso   1.000  C
  C21      1.0000 0.11410  0.53664  0.17833  Biso   1.000  C
  C22      1.0000 0.14512  0.62688  0.19772  Biso   1.000  C
  C23      1.0000 0.09826  0.70673  0.14914  Biso   1.000  C
  C24      1.0000 0.21990  0.64200  0.26196  Biso   1.000  C
  C25      1.0000 0.35493  0.61123  0.62881  Biso   1.000  C
  C26      1.0000 0.28077  0.58813  0.70163  Biso   1.000  C
  C27      1.0000 0.23005  0.65583  0.75148  Biso   1.000  C
  C28      1.0000 0.16120  0.63129  0.81716  Biso   1.000  C
  C29      1.0000 0.10859  0.70493  0.87247  Biso   1.000  C
  C30      1.0000 0.14283  0.53862  0.83255  Biso   1.000  C
  C31      1.0000 0.19227  0.47032  0.78237  Biso   1.000  C
  C32      1.0000 0.26210  0.49557  0.71766  Biso   1.000  C
  C33      1.0000 0.15387  0.08751  0.87535  Biso   1.000  C
  C34      1.0000 0.23530  0.06917  0.80577  Biso   1.000  C
  C35      1.0000 0.26618  0.97917  0.78565  Biso   1.000  C
  C36      1.0000 0.34183  0.96508  0.72335  Biso   1.000  C
  C37      1.0000 0.38590  0.03664  0.67833  Biso   1.000  C
  C38      1.0000 0.35488  0.12688  0.69772  Biso   1.000  C
  C39      1.0000 0.40174  0.20673  0.64914  Biso   1.000  C
  C40      1.0000 0.28010  0.14200  0.76196  Biso   1.000  C
  C41      1.0000 0.14507  0.11123  0.12881  Biso   1.000  C
  C42      1.0000 0.21923  0.08813  0.20163  Biso   1.000  C
  C43      1.0000 0.26995  0.15583  0.25148  Biso   1.000  C
  C44      1.0000 0.33880  0.13129  0.31716  Biso   1.000  C
  C45      1.0000 0.39141  0.20493  0.37247  Biso   1.000  C
  C46      1.0000 0.35717  0.03862  0.33255  Biso   1.000  C
  C47      1.0000 0.30773  0.97032  0.28237  Biso   1.000  C
  C48      1.0000 0.23790  0.99557  0.21766  Biso   1.000  C
  C49      1.0000 0.65387  0.41249  0.62465  Biso   1.000  C
  C50      1.0000 0.73530  0.43083  0.69423  Biso   1.000  C
  C51      1.0000 0.76618  0.52083  0.71435  Biso   1.000  C
  C52      1.0000 0.84183  0.53492  0.77665  Biso   1.000  C
  C53      1.0000 0.88590  0.46336  0.82167  Biso   1.000  C
  C54      1.0000 0.85488  0.37312  0.80228  Biso   1.000  C
  C55      1.0000 0.90174  0.29327  0.85086  Biso   1.000  C
  C56      1.0000 0.78010  0.35800  0.73804  Biso   1.000  C
  C57      1.0000 0.64507  0.38877  0.37119  Biso   1.000  C
  C58      1.0000 0.71923  0.41187  0.29837  Biso   1.000  C
  C59      1.0000 0.76995  0.34417  0.24852  Biso   1.000  C
  C60      1.0000 0.83880  0.36871  0.18284  Biso   1.000  C
  C61      1.0000 0.89141  0.29507  0.12753  Biso   1.000  C
  C62      1.0000 0.85717  0.46138  0.16745  Biso   1.000  C
  C63      1.0000 0.80773  0.52968  0.21763  Biso   1.000  C
  C64      1.0000 0.73790  0.50443  0.28234  Biso   1.000  C
  N1       1.0000 0.62383  0.12990  0.29402  Biso   1.000  N
  N2       1.0000 0.67638  0.12378  0.70031  Biso   1.000  N
  N3       1.0000 0.12383  0.37010  0.20598  Biso   1.000  N
  N4       1.0000 0.17638  0.37622  0.79969  Biso   1.000  N
  N5       1.0000 0.37617  0.87010  0.70598  Biso   1.000  N
  N6       1.0000 0.32362  0.87622  0.29969  Biso   1.000  N
  N7       1.0000 0.87617  0.62990  0.79402  Biso   1.000  N
  N8       1.0000 0.82362  0.62378  0.20031  Biso   1.000  N
  O1       1.0000 0.85797  0.83037  0.09905  Biso   1.000  O
  O2       1.0000 0.83688  0.65043  0.00934  Biso   1.000  O
  O3       1.0000 0.89435  0.98086  0.09880  Biso   1.000  O
  O4       1.0000 0.05313  0.86361  0.01120  Biso   1.000  O
  O5       1.0000 0.64418  0.71814  0.34963  Biso   1.000  O
  O6       1.0000 0.51608  0.80916  0.39006  Biso   1.000  O
  O7       1.0000 0.86323  0.80574  0.89404  Biso   1.000  O
  O8       1.0000 0.90334  0.95462  0.90423  Biso   1.000  O
  O9       1.0000 0.64568  0.71705  0.62496  Biso   1.000  O
  O10      1.0000 0.52858  0.81829  0.58742  Biso   1.000  O
  O11      1.0000 0.35797  0.66963  0.40095  Biso   1.000  O
  O12      1.0000 0.33688  0.84957  0.49066  Biso   1.000  O
  O13      1.0000 0.39435  0.51914  0.40120  Biso   1.000  O
  O14      1.0000 0.55313  0.63639  0.48880  Biso   1.000  O
  O15      1.0000 0.14418  0.78186  0.15037  Biso   1.000  O
  O16      1.0000 0.01608  0.69084  0.10994  Biso   1.000  O
  O17      1.0000 0.36323  0.69426  0.60596  Biso   1.000  O
  O18      1.0000 0.40334  0.54538  0.59577  Biso   1.000  O
  O19      1.0000 0.14568  0.78295  0.87504  Biso   1.000  O
  O20      1.0000 0.02858  0.68171  0.91258  Biso   1.000  O
  O21      1.0000 0.14203  0.16963  0.90095  Biso   1.000  O
  O22      1.0000 0.16312  0.34957  0.99066  Biso   1.000  O
  O23      1.0000 0.10565  0.01914  0.90120  Biso   1.000  O
  O24      1.0000 0.94687  0.13639  0.98880  Biso   1.000  O
  O25      1.0000 0.35582  0.28186  0.65037  Biso   1.000  O
  O26      1.0000 0.48392  0.19084  0.60994  Biso   1.000  O
  O27      1.0000 0.13677  0.19426  0.10596  Biso   1.000  O
  O28      1.0000 0.09666  0.04538  0.09577  Biso   1.000  O
  O29      1.0000 0.35432  0.28295  0.37504  Biso   1.000  O
  O30      1.0000 0.47142  0.18171  0.41258  Biso   1.000  O
  O31      1.0000 0.64203  0.33037  0.59905  Biso   1.000  O
  O32      1.0000 0.66312  0.15043  0.50934  Biso   1.000  O
  O33      1.0000 0.60565  0.48086  0.59880  Biso   1.000  O
  O34      1.0000 0.44687  0.36361  0.51120  Biso   1.000  O
  O35      1.0000 0.85582  0.21814  0.84963  Biso   1.000  O
  O36      1.0000 0.98392  0.30916  0.89006  Biso   1.000  O
  O37      1.0000 0.63677  0.30574  0.39404  Biso   1.000  O
  O38      1.0000 0.59666  0.45462  0.40423  Biso   1.000  O
  O39      1.0000 0.85432  0.21705  0.12496  Biso   1.000  O
  O40      1.0000 0.97142  0.31829  0.08742  Biso   1.000  O
