data_image0
_cell_length_a       15.0937
_cell_length_b       17.328
_cell_length_c       17.328
_cell_angle_alpha    79.0656
_cell_angle_beta     64.1811
_cell_angle_gamma    64.1811

_symmetry_space_group_name_H-M    P 1
_symmetry_int_tables_number       1

loop_
  _symmetry_equiv_pos_as_xyz
  'x, y, z'

loop_
  _atom_site_label
  _atom_site_occupancy
  _atom_site_fract_x
  _atom_site_fract_y
  _atom_site_fract_z
  _atom_site_thermal_displace_type
  _atom_site_B_iso_or_equiv
  _atom_site_type_symbol
  Zn1      1.0000 0.75000  0.00000  0.00000  Biso   1.000  Zn
  Zn2      1.0000 0.25000  0.00000  0.00000  Biso   1.000  Zn
  Si1      1.0000 0.00000  0.00000  0.00000  Biso   1.000  Si
  Si2      1.0000 0.50000  0.00000  0.00000  Biso   1.000  Si
  H1       1.0000 0.96670  0.85090  0.92850  Biso   1.000  H
  H2       1.0000 0.04680  0.70110  0.92370  Biso   1.000  H
  H3       1.0000 0.05840  0.57620  0.87680  Biso   1.000  H
  H4       1.0000 0.74610  0.14910  0.07150  Biso   1.000  H
  H5       1.0000 0.67160  0.29890  0.07630  Biso   1.000  H
  H6       1.0000 0.51140  0.42380  0.12320  Biso   1.000  H
  H7       1.0000 0.89520  0.07150  0.85090  Biso   1.000  H
  H8       1.0000 0.97050  0.07630  0.70110  Biso   1.000  H
  H9       1.0000 0.93520  0.12320  0.57620  Biso   1.000  H
  H10      1.0000 0.81760  0.92850  0.14910  Biso   1.000  H
  H11      1.0000 0.74790  0.92370  0.29890  Biso   1.000  H
  H12      1.0000 0.63460  0.87680  0.42380  Biso   1.000  H
  H13      1.0000 0.75390  0.92850  0.85090  Biso   1.000  H
  H14      1.0000 0.82840  0.92370  0.70110  Biso   1.000  H
  H15      1.0000 0.98860  0.87680  0.57620  Biso   1.000  H
  H16      1.0000 0.53330  0.07150  0.14910  Biso   1.000  H
  H17      1.0000 0.45320  0.07630  0.29890  Biso   1.000  H
  H18      1.0000 0.44160  0.12320  0.42380  Biso   1.000  H
  H19      1.0000 0.68240  0.85090  0.07150  Biso   1.000  H
  H20      1.0000 0.75210  0.70110  0.07630  Biso   1.000  H
  H21      1.0000 0.86540  0.57620  0.12320  Biso   1.000  H
  H22      1.0000 0.60480  0.14910  0.92850  Biso   1.000  H
  H23      1.0000 0.52950  0.29890  0.92370  Biso   1.000  H
  H24      1.0000 0.56480  0.42380  0.87680  Biso   1.000  H
  H25      1.0000 0.03330  0.14910  0.07150  Biso   1.000  H
  H26      1.0000 0.95320  0.29890  0.07630  Biso   1.000  H
  H27      1.0000 0.94160  0.42380  0.12320  Biso   1.000  H
  H28      1.0000 0.25390  0.85090  0.92850  Biso   1.000  H
  H29      1.0000 0.32840  0.70110  0.92370  Biso   1.000  H
  H30      1.0000 0.48860  0.57620  0.87680  Biso   1.000  H
  H31      1.0000 0.10480  0.92850  0.14910  Biso   1.000  H
  H32      1.0000 0.02950  0.92370  0.29890  Biso   1.000  H
  H33      1.0000 0.06480  0.87680  0.42380  Biso   1.000  H
  H34      1.0000 0.18240  0.07150  0.85090  Biso   1.000  H
  H35      1.0000 0.25210  0.07630  0.70110  Biso   1.000  H
  H36      1.0000 0.36540  0.12320  0.57620  Biso   1.000  H
  H37      1.0000 0.24610  0.07150  0.14910  Biso   1.000  H
  H38      1.0000 0.17160  0.07630  0.29890  Biso   1.000  H
  H39      1.0000 0.01140  0.12320  0.42380  Biso   1.000  H
  H40      1.0000 0.46670  0.92850  0.85090  Biso   1.000  H
  H41      1.0000 0.54680  0.92370  0.70110  Biso   1.000  H
  H42      1.0000 0.55840  0.87680  0.57620  Biso   1.000  H
  H43      1.0000 0.31760  0.14910  0.92850  Biso   1.000  H
  H44      1.0000 0.24790  0.29890  0.92370  Biso   1.000  H
  H45      1.0000 0.13460  0.42380  0.87680  Biso   1.000  H
  H46      1.0000 0.39520  0.85090  0.07150  Biso   1.000  H
  H47      1.0000 0.47050  0.70110  0.07630  Biso   1.000  H
  H48      1.0000 0.43520  0.57620  0.12320  Biso   1.000  H
  C1       1.0000 0.92270  0.81989  0.95811  Biso   1.000  C
  C2       1.0000 0.97187  0.73022  0.95524  Biso   1.000  C
  C3       1.0000 0.03370  0.54590  0.92770  Biso   1.000  C
  C4       1.0000 0.70070  0.18011  0.04189  Biso   1.000  C
  C5       1.0000 0.65733  0.26978  0.04476  Biso   1.000  C
  C6       1.0000 0.50730  0.45410  0.07230  Biso   1.000  C
  C7       1.0000 0.88081  0.04189  0.81989  Biso   1.000  C
  C8       1.0000 0.92711  0.04476  0.73022  Biso   1.000  C
  C9       1.0000 0.96140  0.07230  0.54590  Biso   1.000  C
  C10      1.0000 0.74259  0.95811  0.18011  Biso   1.000  C
  C11      1.0000 0.70209  0.95524  0.26978  Biso   1.000  C
  C12      1.0000 0.57960  0.92770  0.45410  Biso   1.000  C
  C13      1.0000 0.79930  0.95811  0.81989  Biso   1.000  C
  C14      1.0000 0.84267  0.95524  0.73022  Biso   1.000  C
  C15      1.0000 0.99270  0.92770  0.54590  Biso   1.000  C
  C16      1.0000 0.57730  0.04189  0.18011  Biso   1.000  C
  C17      1.0000 0.52813  0.04476  0.26978  Biso   1.000  C
  C18      1.0000 0.46630  0.07230  0.45410  Biso   1.000  C
  C19      1.0000 0.75741  0.81989  0.04189  Biso   1.000  C
  C20      1.0000 0.79791  0.73022  0.04476  Biso   1.000  C
  C21      1.0000 0.92040  0.54590  0.07230  Biso   1.000  C
  C22      1.0000 0.61919  0.18011  0.95811  Biso   1.000  C
  C23      1.0000 0.57289  0.26978  0.95524  Biso   1.000  C
  C24      1.0000 0.53860  0.45410  0.92770  Biso   1.000  C
  C25      1.0000 0.07730  0.18011  0.04189  Biso   1.000  C
  C26      1.0000 0.02813  0.26978  0.04476  Biso   1.000  C
  C27      1.0000 0.96630  0.45410  0.07230  Biso   1.000  C
  C28      1.0000 0.29930  0.81989  0.95811  Biso   1.000  C
  C29      1.0000 0.34267  0.73022  0.95524  Biso   1.000  C
  C30      1.0000 0.49270  0.54590  0.92770  Biso   1.000  C
  C31      1.0000 0.11919  0.95811  0.18011  Biso   1.000  C
  C32      1.0000 0.07289  0.95524  0.26978  Biso   1.000  C
  C33      1.0000 0.03860  0.92770  0.45410  Biso   1.000  C
  C34      1.0000 0.25741  0.04189  0.81989  Biso   1.000  C
  C35      1.0000 0.29791  0.04476  0.73022  Biso   1.000  C
  C36      1.0000 0.42040  0.07230  0.54590  Biso   1.000  C
  C37      1.0000 0.20070  0.04189  0.18011  Biso   1.000  C
  C38      1.0000 0.15733  0.04476  0.26978  Biso   1.000  C
  C39      1.0000 0.00730  0.07230  0.45410  Biso   1.000  C
  C40      1.0000 0.42270  0.95811  0.81989  Biso   1.000  C
  C41      1.0000 0.47187  0.95524  0.73022  Biso   1.000  C
  C42      1.0000 0.53370  0.92770  0.54590  Biso   1.000  C
  C43      1.0000 0.24259  0.18011  0.95811  Biso   1.000  C
  C44      1.0000 0.20209  0.26978  0.95524  Biso   1.000  C
  C45      1.0000 0.07960  0.45410  0.92770  Biso   1.000  C
  C46      1.0000 0.38081  0.81989  0.04189  Biso   1.000  C
  C47      1.0000 0.42711  0.73022  0.04476  Biso   1.000  C
  C48      1.0000 0.46140  0.54590  0.07230  Biso   1.000  C
  C49      1.0000 0.90731  0.68538  0.00000  Biso   1.000  C
  C50      1.0000 0.95514  0.58972  0.00000  Biso   1.000  C
  C51      1.0000 0.59269  0.31462  0.00000  Biso   1.000  C
  C52      1.0000 0.54486  0.41028  0.00000  Biso   1.000  C
  C53      1.0000 0.90731  0.00000  0.68538  Biso   1.000  C
  C54      1.0000 0.95514  0.00000  0.58972  Biso   1.000  C
  C55      1.0000 0.59269  0.00000  0.31462  Biso   1.000  C
  C56      1.0000 0.54486  0.00000  0.41028  Biso   1.000  C
  C57      1.0000 0.09269  0.31462  0.00000  Biso   1.000  C
  C58      1.0000 0.04486  0.41028  0.00000  Biso   1.000  C
  C59      1.0000 0.40731  0.68538  0.00000  Biso   1.000  C
  C60      1.0000 0.45514  0.58972  0.00000  Biso   1.000  C
  C61      1.0000 0.09269  0.00000  0.31462  Biso   1.000  C
  C62      1.0000 0.04486  0.00000  0.41028  Biso   1.000  C
  C63      1.0000 0.40731  0.00000  0.68538  Biso   1.000  C
  C64      1.0000 0.45514  0.00000  0.58972  Biso   1.000  C
  N1       1.0000 0.81787  0.86426  0.00000  Biso   1.000  N
  N2       1.0000 0.68213  0.13574  0.00000  Biso   1.000  N
  N3       1.0000 0.81787  0.00000  0.86426  Biso   1.000  N
  N4       1.0000 0.68213  0.00000  0.13574  Biso   1.000  N
  N5       1.0000 0.18213  0.13574  0.00000  Biso   1.000  N
  N6       1.0000 0.31787  0.86426  0.00000  Biso   1.000  N
  N7       1.0000 0.18213  0.00000  0.13574  Biso   1.000  N
  N8       1.0000 0.31787  0.00000  0.86426  Biso   1.000  N
  F1       1.0000 0.92723  0.05492  0.09062  Biso   1.000  F
  F2       1.0000 0.07277  0.94508  0.90938  Biso   1.000  F
  F3       1.0000 0.01785  0.90938  0.05492  Biso   1.000  F
  F4       1.0000 0.98215  0.09062  0.94508  Biso   1.000  F
  F5       1.0000 0.42723  0.09062  0.05492  Biso   1.000  F
  F6       1.0000 0.57277  0.90938  0.94508  Biso   1.000  F
  F7       1.0000 0.51785  0.05492  0.90938  Biso   1.000  F
  F8       1.0000 0.48215  0.94508  0.09062  Biso   1.000  F
  F9       1.0000 0.88660  0.00000  0.00000  Biso   1.000  F
  F10      1.0000 0.61340  0.00000  0.00000  Biso   1.000  F
  F11      1.0000 0.11340  0.00000  0.00000  Biso   1.000  F
  F12      1.0000 0.38660  0.00000  0.00000  Biso   1.000  F
