data_image0
_cell_length_a       15.0666
_cell_length_b       15.7706
_cell_length_c       15.7706
_cell_angle_alpha    76.8103
_cell_angle_beta     61.4661
_cell_angle_gamma    61.4661

_symmetry_space_group_name_H-M    P 1
_symmetry_int_tables_number       1

loop_
  _symmetry_equiv_pos_as_xyz
  'x, y, z'

loop_
  _atom_site_label
  _atom_site_occupancy
  _atom_site_fract_x
  _atom_site_fract_y
  _atom_site_fract_z
  _atom_site_thermal_displace_type
  _atom_site_B_iso_or_equiv
  _atom_site_type_symbol
  Zn1      1.0000 0.25000  0.00000  0.00000  Biso   1.000  Zn
  Zn2      1.0000 0.75000  1.00000  0.00000  Biso   1.000  Zn
  Si1      1.0000 0.00000  0.00000  0.00000  Biso   1.000  Si
  Si2      1.0000 0.50000  0.00000  0.00000  Biso   1.000  Si
  H1       1.0000 0.23760  0.16790  0.07690  Biso   1.000  H
  H2       1.0000 0.15480  0.33550  0.07950  Biso   1.000  H
  H3       1.0000 0.48240  0.83210  0.92310  Biso   1.000  H
  H4       1.0000 0.56980  0.66450  0.92050  Biso   1.000  H
  H5       1.0000 0.31450  0.92310  0.16790  Biso   1.000  H
  H6       1.0000 0.23430  0.92050  0.33550  Biso   1.000  H
  H7       1.0000 0.40550  0.07690  0.83210  Biso   1.000  H
  H8       1.0000 0.49030  0.07950  0.66450  Biso   1.000  H
  H9       1.0000 0.01760  0.07690  0.16790  Biso   1.000  H
  H10      1.0000 0.93020  0.07950  0.33550  Biso   1.000  H
  H11      1.0000 0.26240  0.92310  0.83210  Biso   1.000  H
  H12      1.0000 0.34520  0.92050  0.66450  Biso   1.000  H
  H13      1.0000 0.09450  0.16790  0.92310  Biso   1.000  H
  H14      1.0000 0.00970  0.33550  0.92050  Biso   1.000  H
  H15      1.0000 0.18550  0.83210  0.07690  Biso   1.000  H
  H16      1.0000 0.26570  0.66450  0.07950  Biso   1.000  H
  H17      1.0000 0.76240  0.83210  0.92310  Biso   1.000  H
  H18      1.0000 0.84520  0.66450  0.92050  Biso   1.000  H
  H19      1.0000 0.51760  0.16790  0.07690  Biso   1.000  H
  H20      1.0000 0.43020  0.33550  0.07950  Biso   1.000  H
  H21      1.0000 0.68550  0.07690  0.83210  Biso   1.000  H
  H22      1.0000 0.76570  0.07950  0.66450  Biso   1.000  H
  H23      1.0000 0.59450  0.92310  0.16790  Biso   1.000  H
  H24      1.0000 0.50970  0.92050  0.33550  Biso   1.000  H
  H25      1.0000 0.98240  0.92310  0.83210  Biso   1.000  H
  H26      1.0000 0.06980  0.92050  0.66450  Biso   1.000  H
  H27      1.0000 0.73760  0.07690  0.16790  Biso   1.000  H
  H28      1.0000 0.65480  0.07950  0.33550  Biso   1.000  H
  H29      1.0000 0.90550  0.83210  0.07690  Biso   1.000  H
  H30      1.0000 0.99030  0.66450  0.07950  Biso   1.000  H
  H31      1.0000 0.81450  0.16790  0.92310  Biso   1.000  H
  H32      1.0000 0.73430  0.33550  0.92050  Biso   1.000  H
  C1       1.0000 0.19040  0.20260  0.04500  Biso   1.000  C
  C2       1.0000 0.14160  0.30240  0.04660  Biso   1.000  C
  C3       1.0000 0.43800  0.79740  0.95500  Biso   1.000  C
  C4       1.0000 0.49060  0.69760  0.95340  Biso   1.000  C
  C5       1.0000 0.23540  0.95500  0.20260  Biso   1.000  C
  C6       1.0000 0.18820  0.95340  0.30240  Biso   1.000  C
  C7       1.0000 0.39300  0.04500  0.79740  Biso   1.000  C
  C8       1.0000 0.44400  0.04660  0.69760  Biso   1.000  C
  C9       1.0000 0.06200  0.04500  0.20260  Biso   1.000  C
  C10      1.0000 0.00940  0.04660  0.30240  Biso   1.000  C
  C11      1.0000 0.30960  0.95500  0.79740  Biso   1.000  C
  C12      1.0000 0.35840  0.95340  0.69760  Biso   1.000  C
  C13      1.0000 0.10700  0.20260  0.95500  Biso   1.000  C
  C14      1.0000 0.05600  0.30240  0.95340  Biso   1.000  C
  C15      1.0000 0.26460  0.79740  0.04500  Biso   1.000  C
  C16      1.0000 0.31180  0.69760  0.04660  Biso   1.000  C
  C17      1.0000 0.80960  0.79740  0.95500  Biso   1.000  C
  C18      1.0000 0.85840  0.69760  0.95340  Biso   1.000  C
  C19      1.0000 0.56200  0.20260  0.04500  Biso   1.000  C
  C20      1.0000 0.50940  0.30240  0.04660  Biso   1.000  C
  C21      1.0000 0.76460  0.04500  0.79740  Biso   1.000  C
  C22      1.0000 0.81180  0.04660  0.69760  Biso   1.000  C
  C23      1.0000 0.60700  0.95500  0.20260  Biso   1.000  C
  C24      1.0000 0.55600  0.95340  0.30240  Biso   1.000  C
  C25      1.0000 0.93800  0.95500  0.79740  Biso   1.000  C
  C26      1.0000 0.99060  0.95340  0.69760  Biso   1.000  C
  C27      1.0000 0.69040  0.04500  0.20260  Biso   1.000  C
  C28      1.0000 0.64160  0.04660  0.30240  Biso   1.000  C
  C29      1.0000 0.89300  0.79740  0.04500  Biso   1.000  C
  C30      1.0000 0.94400  0.69760  0.04660  Biso   1.000  C
  C31      1.0000 0.73540  0.20260  0.95500  Biso   1.000  C
  C32      1.0000 0.68820  0.30240  0.95340  Biso   1.000  C
  C33      1.0000 0.07330  0.35340  0.00000  Biso   1.000  C
  C34      1.0000 0.02090  0.45820  0.00000  Biso   1.000  C
  C35      1.0000 0.42670  0.64660  0.00000  Biso   1.000  C
  C36      1.0000 0.47910  0.54180  0.00000  Biso   1.000  C
  C37      1.0000 0.07330  0.00000  0.35340  Biso   1.000  C
  C38      1.0000 0.02090  0.00000  0.45820  Biso   1.000  C
  C39      1.0000 0.42670  0.00000  0.64660  Biso   1.000  C
  C40      1.0000 0.47910  0.00000  0.54180  Biso   1.000  C
  C41      1.0000 0.92670  0.64660  0.00000  Biso   1.000  C
  C42      1.0000 0.97910  0.54180  0.00000  Biso   1.000  C
  C43      1.0000 0.57330  0.35340  0.00000  Biso   1.000  C
  C44      1.0000 0.52090  0.45820  0.00000  Biso   1.000  C
  C45      1.0000 0.92670  0.00000  0.64660  Biso   1.000  C
  C46      1.0000 0.97910  1.00000  0.54180  Biso   1.000  C
  C47      1.0000 0.57330  0.00000  0.35340  Biso   1.000  C
  C48      1.0000 0.52090  1.00000  0.45820  Biso   1.000  C
  N1       1.0000 0.17330  0.15340  1.00000  Biso   1.000  N
  N2       1.0000 0.32670  0.84660  0.00000  Biso   1.000  N
  N3       1.0000 0.17330  0.00000  0.15340  Biso   1.000  N
  N4       1.0000 0.32670  0.00000  0.84660  Biso   1.000  N
  N5       1.0000 0.82670  0.84660  0.00000  Biso   1.000  N
  N6       1.0000 0.67330  0.15340  0.00000  Biso   1.000  N
  N7       1.0000 0.82670  0.00000  0.84660  Biso   1.000  N
  N8       1.0000 0.67330  0.00000  0.15340  Biso   1.000  N
  F1       1.0000 0.11270  0.00000  1.00000  Biso   1.000  F
  F2       1.0000 0.38730  0.00000  0.00000  Biso   1.000  F
  F3       1.0000 0.88730  0.00000  1.00000  Biso   1.000  F
  F4       1.0000 0.61270  0.00000  0.00000  Biso   1.000  F
  F5       1.0000 0.98160  0.93530  0.10150  Biso   1.000  F
  F6       1.0000 0.01840  0.06470  0.89850  Biso   1.000  F
  F7       1.0000 0.08310  0.89850  0.93530  Biso   1.000  F
  F8       1.0000 0.91690  0.10150  0.06470  Biso   1.000  F
  F9       1.0000 0.48160  0.10150  0.93530  Biso   1.000  F
  F10      1.0000 0.51840  0.89850  0.06470  Biso   1.000  F
  F11      1.0000 0.58310  0.93530  0.89850  Biso   1.000  F
  F12      1.0000 0.41690  0.06470  0.10150  Biso   1.000  F
