data_image0
_cell_length_a       13.6309
_cell_length_b       13.6309
_cell_length_c       13.6309
_cell_angle_alpha    105.85
_cell_angle_beta     109.737
_cell_angle_gamma    112.903

_symmetry_space_group_name_H-M    P 1
_symmetry_int_tables_number       1

loop_
  _symmetry_equiv_pos_as_xyz
  'x, y, z'

loop_
  _atom_site_label
  _atom_site_occupancy
  _atom_site_fract_x
  _atom_site_fract_y
  _atom_site_fract_z
  _atom_site_thermal_displace_type
  _atom_site_B_iso_or_equiv
  _atom_site_type_symbol
  Co1      1.0000 0.00000  0.50000  0.50000  Biso   1.000  Co
  Co2      1.0000 0.50000  0.00000  0.50000  Biso   1.000  Co
  H1       1.0000 0.95860  0.63850  0.35710  Biso   1.000  H
  H2       1.0000 0.95890  0.65680  0.19650  Biso   1.000  H
  H3       1.0000 0.98750  0.36660  0.11010  Biso   1.000  H
  H4       1.0000 0.98780  0.35720  0.26840  Biso   1.000  H
  H5       1.0000 0.97920  0.58980  0.02480  Biso   1.000  H
  H6       1.0000 0.28140  0.60150  0.64290  Biso   1.000  H
  H7       1.0000 0.46030  0.76240  0.80350  Biso   1.000  H
  H8       1.0000 0.25650  0.87740  0.88990  Biso   1.000  H
  H9       1.0000 0.08880  0.71940  0.73160  Biso   1.000  H
  H10      1.0000 0.56500  0.95440  0.97520  Biso   1.000  H
  H11      1.0000 0.54140  0.89850  0.67990  Biso   1.000  H
  H12      1.0000 0.54110  0.73760  0.69790  Biso   1.000  H
  H13      1.0000 0.51250  0.62260  0.37910  Biso   1.000  H
  H14      1.0000 0.51220  0.78060  0.36940  Biso   1.000  H
  H15      1.0000 0.52080  0.54560  0.61060  Biso   1.000  H
  H16      1.0000 0.21860  0.86150  0.32010  Biso   1.000  H
  H17      1.0000 0.03970  0.84320  0.30210  Biso   1.000  H
  H18      1.0000 0.24350  0.13340  0.62090  Biso   1.000  H
  H19      1.0000 0.41120  0.14280  0.63060  Biso   1.000  H
  H20      1.0000 0.93500  0.91020  0.38940  Biso   1.000  H
  H21      1.0000 0.04140  0.36150  0.64290  Biso   1.000  H
  H22      1.0000 0.04110  0.34320  0.80350  Biso   1.000  H
  H23      1.0000 0.01250  0.63340  0.88990  Biso   1.000  H
  H24      1.0000 0.01220  0.64280  0.73160  Biso   1.000  H
  H25      1.0000 0.02080  0.41020  0.97520  Biso   1.000  H
  H26      1.0000 0.71860  0.39850  0.35710  Biso   1.000  H
  H27      1.0000 0.53970  0.23760  0.19650  Biso   1.000  H
  H28      1.0000 0.74350  0.12260  0.11010  Biso   1.000  H
  H29      1.0000 0.91120  0.28060  0.26840  Biso   1.000  H
  H30      1.0000 0.43500  0.04560  0.02480  Biso   1.000  H
  H31      1.0000 0.45860  0.10150  0.32010  Biso   1.000  H
  H32      1.0000 0.45890  0.26240  0.30210  Biso   1.000  H
  H33      1.0000 0.48750  0.37740  0.62090  Biso   1.000  H
  H34      1.0000 0.48780  0.21940  0.63060  Biso   1.000  H
  H35      1.0000 0.47920  0.45440  0.38940  Biso   1.000  H
  H36      1.0000 0.78140  0.13850  0.67990  Biso   1.000  H
  H37      1.0000 0.96030  0.15680  0.69790  Biso   1.000  H
  H38      1.0000 0.75650  0.86660  0.37910  Biso   1.000  H
  H39      1.0000 0.58880  0.85720  0.36940  Biso   1.000  H
  H40      1.0000 0.06500  0.08980  0.61060  Biso   1.000  H
  C1       1.0000 0.83690  0.21160  0.37470  Biso   1.000  C
  C2       1.0000 0.96470  0.58310  0.30580  Biso   1.000  C
  C3       1.0000 0.96370  0.59530  0.21060  Biso   1.000  C
  C4       1.0000 0.97070  0.50160  0.12870  Biso   1.000  C
  C5       1.0000 0.98050  0.42320  0.15870  Biso   1.000  C
  C6       1.0000 0.98160  0.41780  0.25360  Biso   1.000  C
  C7       1.0000 0.98770  0.52790  0.03400  Biso   1.000  C
  C8       1.0000 0.83690  0.46220  0.62530  Biso   1.000  C
  C9       1.0000 0.27730  0.65890  0.69420  Biso   1.000  C
  C10      1.0000 0.38470  0.75310  0.78940  Biso   1.000  C
  C11      1.0000 0.37290  0.84200  0.87130  Biso   1.000  C
  C12      1.0000 0.26450  0.82180  0.84130  Biso   1.000  C
  C13      1.0000 0.16420  0.72800  0.74640  Biso   1.000  C
  C14      1.0000 0.49390  0.95370  0.96600  Biso   1.000  C
  C15      1.0000 0.66310  0.03780  0.37470  Biso   1.000  C
  C16      1.0000 0.53530  0.84110  0.61840  Biso   1.000  C
  C17      1.0000 0.53630  0.74690  0.63160  Biso   1.000  C
  C18      1.0000 0.52930  0.65800  0.53090  Biso   1.000  C
  C19      1.0000 0.51950  0.67820  0.44270  Biso   1.000  C
  C20      1.0000 0.51840  0.77200  0.43620  Biso   1.000  C
  C21      1.0000 0.51230  0.54630  0.54020  Biso   1.000  C
  C22      1.0000 0.66310  0.28840  0.62530  Biso   1.000  C
  C23      1.0000 0.22270  0.91690  0.38160  Biso   1.000  C
  C24      1.0000 0.11530  0.90470  0.36840  Biso   1.000  C
  C25      1.0000 0.12710  0.99840  0.46910  Biso   1.000  C
  C26      1.0000 0.23550  0.07680  0.55730  Biso   1.000  C
  C27      1.0000 0.33580  0.08220  0.56380  Biso   1.000  C
  C28      1.0000 0.00610  0.97210  0.45980  Biso   1.000  C
  C29      1.0000 0.16310  0.78840  0.62530  Biso   1.000  C
  C30      1.0000 0.03530  0.41690  0.69420  Biso   1.000  C
  C31      1.0000 0.03630  0.40470  0.78940  Biso   1.000  C
  C32      1.0000 0.02930  0.49840  0.87130  Biso   1.000  C
  C33      1.0000 0.01950  0.57680  0.84130  Biso   1.000  C
  C34      1.0000 0.01840  0.58220  0.74640  Biso   1.000  C
  C35      1.0000 0.01230  0.47210  0.96600  Biso   1.000  C
  C36      1.0000 0.16310  0.53780  0.37470  Biso   1.000  C
  C37      1.0000 0.72270  0.34110  0.30580  Biso   1.000  C
  C38      1.0000 0.61530  0.24690  0.21060  Biso   1.000  C
  C39      1.0000 0.62710  0.15800  0.12870  Biso   1.000  C
  C40      1.0000 0.73550  0.17820  0.15870  Biso   1.000  C
  C41      1.0000 0.83580  0.27200  0.25360  Biso   1.000  C
  C42      1.0000 0.50610  0.04630  0.03400  Biso   1.000  C
  C43      1.0000 0.33690  0.96220  0.62530  Biso   1.000  C
  C44      1.0000 0.46470  0.15890  0.38160  Biso   1.000  C
  C45      1.0000 0.46370  0.25310  0.36840  Biso   1.000  C
  C46      1.0000 0.47070  0.34200  0.46910  Biso   1.000  C
  C47      1.0000 0.48050  0.32180  0.55730  Biso   1.000  C
  C48      1.0000 0.48160  0.22800  0.56380  Biso   1.000  C
  C49      1.0000 0.48770  0.45370  0.45980  Biso   1.000  C
  C50      1.0000 0.33690  0.71160  0.37470  Biso   1.000  C
  C51      1.0000 0.77730  0.08310  0.61840  Biso   1.000  C
  C52      1.0000 0.88470  0.09530  0.63160  Biso   1.000  C
  C53      1.0000 0.87290  0.00160  0.53090  Biso   1.000  C
  C54      1.0000 0.76450  0.92320  0.44270  Biso   1.000  C
  C55      1.0000 0.66420  0.91780  0.43620  Biso   1.000  C
  C56      1.0000 0.99390  0.02790  0.54020  Biso   1.000  C
  S1       1.0000 0.75340  0.06850  0.31510  Biso   1.000  S
  S2       1.0000 0.75340  0.43830  0.68490  Biso   1.000  S
  S3       1.0000 0.74660  0.06170  0.31510  Biso   1.000  S
  S4       1.0000 0.74660  0.43150  0.68490  Biso   1.000  S
  S5       1.0000 0.24660  0.93150  0.68490  Biso   1.000  S
  S6       1.0000 0.24660  0.56170  0.31510  Biso   1.000  S
  S7       1.0000 0.25340  0.93830  0.68490  Biso   1.000  S
  S8       1.0000 0.25340  0.56850  0.31510  Biso   1.000  S
  N1       1.0000 0.89850  0.31300  0.41450  Biso   1.000  N
  N2       1.0000 0.97360  0.49990  0.33330  Biso   1.000  N
  N3       1.0000 0.89850  0.48400  0.58550  Biso   1.000  N
  N4       1.0000 0.16660  0.64030  0.66670  Biso   1.000  N
  N5       1.0000 0.60150  0.01600  0.41450  Biso   1.000  N
  N6       1.0000 0.52640  0.85970  0.52630  Biso   1.000  N
  N7       1.0000 0.60150  0.18700  0.58550  Biso   1.000  N
  N8       1.0000 0.33340  0.00010  0.47370  Biso   1.000  N
  N9       1.0000 0.10150  0.68700  0.58550  Biso   1.000  N
  N10      1.0000 0.02640  0.50010  0.66670  Biso   1.000  N
  N11      1.0000 0.10150  0.51600  0.41450  Biso   1.000  N
  N12      1.0000 0.83340  0.35970  0.33330  Biso   1.000  N
  N13      1.0000 0.39850  0.98400  0.58550  Biso   1.000  N
  N14      1.0000 0.47360  0.14030  0.47370  Biso   1.000  N
  N15      1.0000 0.39850  0.81300  0.41450  Biso   1.000  N
  N16      1.0000 0.66660  0.99990  0.52630  Biso   1.000  N
