data_image0
_cell_length_a       18.6582
_cell_length_b       18.6582
_cell_length_c       18.6582
_cell_angle_alpha    60
_cell_angle_beta     60
_cell_angle_gamma    60

_symmetry_space_group_name_H-M    P 1
_symmetry_int_tables_number       1

loop_
  _symmetry_equiv_pos_as_xyz
  'x, y, z'

loop_
  _atom_site_label
  _atom_site_occupancy
  _atom_site_fract_x
  _atom_site_fract_y
  _atom_site_fract_z
  _atom_site_thermal_displace_type
  _atom_site_B_iso_or_equiv
  _atom_site_type_symbol
  Cu1      1.0000 0.57012  0.42988  0.00000  Biso   1.000  Cu
  Cu2      1.0000 0.42988  0.57012  0.00000  Biso   1.000  Cu
  Cu3      1.0000 0.00000  1.00000  0.57012  Biso   1.000  Cu
  Cu4      1.0000 0.00000  1.00000  0.42988  Biso   1.000  Cu
  Cu5      1.0000 0.57012  0.00000  0.00000  Biso   1.000  Cu
  Cu6      1.0000 0.42988  0.00000  0.00000  Biso   1.000  Cu
  Cu7      1.0000 0.00000  0.57012  0.42988  Biso   1.000  Cu
  Cu8      1.0000 0.00000  0.42988  0.57012  Biso   1.000  Cu
  Cu9      1.0000 0.57012  0.00000  0.42988  Biso   1.000  Cu
  Cu10     1.0000 0.42988  0.00000  0.57012  Biso   1.000  Cu
  Cu11     1.0000 0.00000  0.42988  0.00000  Biso   1.000  Cu
  Cu12     1.0000 0.00000  0.57012  0.00000  Biso   1.000  Cu
  H1       1.0000 0.27030  0.48850  0.97090  Biso   1.000  H
  H2       1.0000 0.48850  0.27030  0.27030  Biso   1.000  H
  H3       1.0000 0.97090  0.27030  0.27030  Biso   1.000  H
  H4       1.0000 0.27030  0.97090  0.48850  Biso   1.000  H
  H5       1.0000 0.27030  0.97090  0.27030  Biso   1.000  H
  H6       1.0000 0.48850  0.27030  0.97090  Biso   1.000  H
  H7       1.0000 0.97090  0.27030  0.48850  Biso   1.000  H
  H8       1.0000 0.27030  0.48850  0.27030  Biso   1.000  H
  H9       1.0000 0.27030  0.27030  0.48850  Biso   1.000  H
  H10      1.0000 0.48850  0.97090  0.27030  Biso   1.000  H
  H11      1.0000 0.97090  0.48850  0.27030  Biso   1.000  H
  H12      1.0000 0.27030  0.27030  0.97090  Biso   1.000  H
  H13      1.0000 0.51150  0.72970  0.02910  Biso   1.000  H
  H14      1.0000 0.72970  0.51150  0.72970  Biso   1.000  H
  H15      1.0000 0.72970  0.02910  0.72970  Biso   1.000  H
  H16      1.0000 0.02910  0.72970  0.51150  Biso   1.000  H
  H17      1.0000 0.02910  0.72970  0.72970  Biso   1.000  H
  H18      1.0000 0.72970  0.51150  0.02910  Biso   1.000  H
  H19      1.0000 0.72970  0.02910  0.51150  Biso   1.000  H
  H20      1.0000 0.51150  0.72970  0.72970  Biso   1.000  H
  H21      1.0000 0.72970  0.72970  0.51150  Biso   1.000  H
  H22      1.0000 0.02910  0.51150  0.72970  Biso   1.000  H
  H23      1.0000 0.51150  0.02910  0.72970  Biso   1.000  H
  H24      1.0000 0.72970  0.72970  0.02910  Biso   1.000  H
  C1       1.0000 0.29960  0.42966  0.97114  Biso   1.000  C
  C2       1.0000 0.42966  0.29960  0.29960  Biso   1.000  C
  C3       1.0000 0.97114  0.29960  0.29960  Biso   1.000  C
  C4       1.0000 0.29960  0.97114  0.42966  Biso   1.000  C
  C5       1.0000 0.29960  0.97114  0.29960  Biso   1.000  C
  C6       1.0000 0.42966  0.29960  0.97114  Biso   1.000  C
  C7       1.0000 0.97114  0.29960  0.42966  Biso   1.000  C
  C8       1.0000 0.29960  0.42966  0.29960  Biso   1.000  C
  C9       1.0000 0.29960  0.29960  0.42966  Biso   1.000  C
  C10      1.0000 0.42966  0.97114  0.29960  Biso   1.000  C
  C11      1.0000 0.97114  0.42966  0.29960  Biso   1.000  C
  C12      1.0000 0.29960  0.29960  0.97114  Biso   1.000  C
  C13      1.0000 0.57034  0.70040  0.02886  Biso   1.000  C
  C14      1.0000 0.70040  0.57034  0.70040  Biso   1.000  C
  C15      1.0000 0.70040  0.02886  0.70040  Biso   1.000  C
  C16      1.0000 0.02886  0.70040  0.57034  Biso   1.000  C
  C17      1.0000 0.02886  0.70040  0.70040  Biso   1.000  C
  C18      1.0000 0.70040  0.57034  0.02886  Biso   1.000  C
  C19      1.0000 0.70040  0.02886  0.57034  Biso   1.000  C
  C20      1.0000 0.57034  0.70040  0.70040  Biso   1.000  C
  C21      1.0000 0.70040  0.70040  0.57034  Biso   1.000  C
  C22      1.0000 0.02886  0.57034  0.70040  Biso   1.000  C
  C23      1.0000 0.57034  0.02886  0.70040  Biso   1.000  C
  C24      1.0000 0.70040  0.70040  0.02886  Biso   1.000  C
  C25      1.0000 0.38540  0.38540  0.97130  Biso   1.000  C
  C26      1.0000 0.43040  0.43040  0.97802  Biso   1.000  C
  C27      1.0000 0.38540  0.38540  0.25790  Biso   1.000  C
  C28      1.0000 0.43040  0.43040  0.16118  Biso   1.000  C
  C29      1.0000 0.97130  0.25790  0.38540  Biso   1.000  C
  C30      1.0000 0.97802  0.16118  0.43040  Biso   1.000  C
  C31      1.0000 0.25790  0.97130  0.38540  Biso   1.000  C
  C32      1.0000 0.16118  0.97802  0.43040  Biso   1.000  C
  C33      1.0000 0.38540  0.97130  0.25790  Biso   1.000  C
  C34      1.0000 0.43040  0.97802  0.16118  Biso   1.000  C
  C35      1.0000 0.38540  0.25790  0.97130  Biso   1.000  C
  C36      1.0000 0.43040  0.16118  0.97802  Biso   1.000  C
  C37      1.0000 0.97130  0.38540  0.38540  Biso   1.000  C
  C38      1.0000 0.97802  0.43040  0.43040  Biso   1.000  C
  C39      1.0000 0.25790  0.38540  0.38540  Biso   1.000  C
  C40      1.0000 0.16118  0.43040  0.43040  Biso   1.000  C
  C41      1.0000 0.38540  0.25790  0.38540  Biso   1.000  C
  C42      1.0000 0.43040  0.16118  0.43040  Biso   1.000  C
  C43      1.0000 0.38540  0.97130  0.38540  Biso   1.000  C
  C44      1.0000 0.43040  0.97802  0.43040  Biso   1.000  C
  C45      1.0000 0.97130  0.38540  0.25790  Biso   1.000  C
  C46      1.0000 0.97802  0.43040  0.16118  Biso   1.000  C
  C47      1.0000 0.25790  0.38540  0.97130  Biso   1.000  C
  C48      1.0000 0.16118  0.43040  0.97802  Biso   1.000  C
  C49      1.0000 0.61460  0.61460  0.02870  Biso   1.000  C
  C50      1.0000 0.56960  0.56960  0.02198  Biso   1.000  C
  C51      1.0000 0.61460  0.61460  0.74210  Biso   1.000  C
  C52      1.0000 0.56960  0.56960  0.83882  Biso   1.000  C
  C53      1.0000 0.74210  0.02870  0.61460  Biso   1.000  C
  C54      1.0000 0.83882  0.02198  0.56960  Biso   1.000  C
  C55      1.0000 0.02870  0.74210  0.61460  Biso   1.000  C
  C56      1.0000 0.02198  0.83882  0.56960  Biso   1.000  C
  C57      1.0000 0.02870  0.61460  0.74210  Biso   1.000  C
  C58      1.0000 0.02198  0.56960  0.83882  Biso   1.000  C
  C59      1.0000 0.74210  0.61460  0.02870  Biso   1.000  C
  C60      1.0000 0.83882  0.56960  0.02198  Biso   1.000  C
  C61      1.0000 0.61460  0.02870  0.61460  Biso   1.000  C
  C62      1.0000 0.56960  0.02198  0.56960  Biso   1.000  C
  C63      1.0000 0.61460  0.74210  0.61460  Biso   1.000  C
  C64      1.0000 0.56960  0.83882  0.56960  Biso   1.000  C
  C65      1.0000 0.74210  0.61460  0.61460  Biso   1.000  C
  C66      1.0000 0.83882  0.56960  0.56960  Biso   1.000  C
  C67      1.0000 0.02870  0.61460  0.61460  Biso   1.000  C
  C68      1.0000 0.02198  0.56960  0.56960  Biso   1.000  C
  C69      1.0000 0.61460  0.02870  0.74210  Biso   1.000  C
  C70      1.0000 0.56960  0.02198  0.83882  Biso   1.000  C
  C71      1.0000 0.61460  0.74210  0.02870  Biso   1.000  C
  C72      1.0000 0.56960  0.83882  0.02198  Biso   1.000  C
  O1       1.0000 0.50726  0.38738  0.97994  Biso   1.000  O
  O2       1.0000 0.38738  0.50726  0.12542  Biso   1.000  O
  O3       1.0000 0.97994  0.12542  0.50726  Biso   1.000  O
  O4       1.0000 0.12542  0.97994  0.38738  Biso   1.000  O
  O5       1.0000 0.50726  0.97994  0.12542  Biso   1.000  O
  O6       1.0000 0.38738  0.12542  0.97994  Biso   1.000  O
  O7       1.0000 0.97994  0.50726  0.38738  Biso   1.000  O
  O8       1.0000 0.12542  0.38738  0.50726  Biso   1.000  O
  O9       1.0000 0.50726  0.12542  0.38738  Biso   1.000  O
  O10      1.0000 0.38738  0.97994  0.50726  Biso   1.000  O
  O11      1.0000 0.97994  0.38738  0.12542  Biso   1.000  O
  O12      1.0000 0.12542  0.50726  0.97994  Biso   1.000  O
  O13      1.0000 0.61262  0.49274  0.02006  Biso   1.000  O
  O14      1.0000 0.49274  0.61262  0.87458  Biso   1.000  O
  O15      1.0000 0.87458  0.02006  0.49274  Biso   1.000  O
  O16      1.0000 0.02006  0.87458  0.61262  Biso   1.000  O
  O17      1.0000 0.02006  0.49274  0.87458  Biso   1.000  O
  O18      1.0000 0.87458  0.61262  0.02006  Biso   1.000  O
  O19      1.0000 0.49274  0.02006  0.61262  Biso   1.000  O
  O20      1.0000 0.61262  0.87458  0.49274  Biso   1.000  O
  O21      1.0000 0.87458  0.49274  0.61262  Biso   1.000  O
  O22      1.0000 0.02006  0.61262  0.49274  Biso   1.000  O
  O23      1.0000 0.61262  0.02006  0.87458  Biso   1.000  O
  O24      1.0000 0.49274  0.87458  0.02006  Biso   1.000  O
  O25      1.0000 0.49274  0.61262  0.02006  Biso   1.000  O
  O26      1.0000 0.61262  0.49274  0.87458  Biso   1.000  O
  O27      1.0000 0.02006  0.87458  0.49274  Biso   1.000  O
  O28      1.0000 0.87458  0.02006  0.61262  Biso   1.000  O
  O29      1.0000 0.49274  0.02006  0.87458  Biso   1.000  O
  O30      1.0000 0.61262  0.87458  0.02006  Biso   1.000  O
  O31      1.0000 0.02006  0.49274  0.61262  Biso   1.000  O
  O32      1.0000 0.87458  0.61262  0.49274  Biso   1.000  O
  O33      1.0000 0.49274  0.87458  0.61262  Biso   1.000  O
  O34      1.0000 0.61262  0.02006  0.49274  Biso   1.000  O
  O35      1.0000 0.02006  0.61262  0.87458  Biso   1.000  O
  O36      1.0000 0.87458  0.49274  0.02006  Biso   1.000  O
  O37      1.0000 0.38738  0.50726  0.97994  Biso   1.000  O
  O38      1.0000 0.50726  0.38738  0.12542  Biso   1.000  O
  O39      1.0000 0.12542  0.97994  0.50726  Biso   1.000  O
  O40      1.0000 0.97994  0.12542  0.38738  Biso   1.000  O
  O41      1.0000 0.97994  0.50726  0.12542  Biso   1.000  O
  O42      1.0000 0.12542  0.38738  0.97994  Biso   1.000  O
  O43      1.0000 0.50726  0.97994  0.38738  Biso   1.000  O
  O44      1.0000 0.38738  0.12542  0.50726  Biso   1.000  O
  O45      1.0000 0.12542  0.50726  0.38738  Biso   1.000  O
  O46      1.0000 0.97994  0.38738  0.50726  Biso   1.000  O
  O47      1.0000 0.38738  0.97994  0.12542  Biso   1.000  O
  O48      1.0000 0.50726  0.12542  0.97994  Biso   1.000  O
  O49      1.0000 0.68760  0.31240  0.00000  Biso   1.000  O
  O50      1.0000 0.31240  0.68760  0.00000  Biso   1.000  O
  O51      1.0000 0.00000  0.00000  0.68760  Biso   1.000  O
  O52      1.0000 0.00000  0.00000  0.31240  Biso   1.000  O
  O53      1.0000 0.68760  0.00000  0.00000  Biso   1.000  O
  O54      1.0000 0.31240  0.00000  0.00000  Biso   1.000  O
  O55      1.0000 0.00000  0.68760  0.31240  Biso   1.000  O
  O56      1.0000 0.00000  0.31240  0.68760  Biso   1.000  O
  O57      1.0000 0.68760  1.00000  0.31240  Biso   1.000  O
  O58      1.0000 0.31240  0.00000  0.68760  Biso   1.000  O
  O59      1.0000 0.00000  0.31240  0.00000  Biso   1.000  O
  O60      1.0000 0.00000  0.68760  0.00000  Biso   1.000  O
