data_image0
_cell_length_a       12.6977
_cell_length_b       15.1033
_cell_length_c       18.903
_cell_angle_alpha    90
_cell_angle_beta     90
_cell_angle_gamma    90

_symmetry_space_group_name_H-M    P 1
_symmetry_int_tables_number       1

loop_
  _symmetry_equiv_pos_as_xyz
  'x, y, z'

loop_
  _atom_site_label
  _atom_site_occupancy
  _atom_site_fract_x
  _atom_site_fract_y
  _atom_site_fract_z
  _atom_site_thermal_displace_type
  _atom_site_B_iso_or_equiv
  _atom_site_type_symbol
  Zn1      1.0000 0.19879  0.04828  0.22575  Biso   1.000  Zn
  Zn2      1.0000 0.12767  0.19123  0.38199  Biso   1.000  Zn
  Zn3      1.0000 0.30121  0.95172  0.72575  Biso   1.000  Zn
  Zn4      1.0000 0.37233  0.80877  0.88199  Biso   1.000  Zn
  Zn5      1.0000 0.80121  0.54828  0.27425  Biso   1.000  Zn
  Zn6      1.0000 0.87233  0.69123  0.11801  Biso   1.000  Zn
  Zn7      1.0000 0.69879  0.45172  0.77425  Biso   1.000  Zn
  Zn8      1.0000 0.62767  0.30877  0.61801  Biso   1.000  Zn
  H1       1.0000 0.46600  0.97650  0.31900  Biso   1.000  H
  H2       1.0000 0.64220  0.96330  0.35140  Biso   1.000  H
  H3       1.0000 0.71090  0.05210  0.43950  Biso   1.000  H
  H4       1.0000 0.43170  0.17430  0.45980  Biso   1.000  H
  H5       1.0000 0.21940  0.26390  0.10560  Biso   1.000  H
  H6       1.0000 0.19130  0.37260  0.02140  Biso   1.000  H
  H7       1.0000 0.09020  0.49570  0.04930  Biso   1.000  H
  H8       1.0000 0.05120  0.40400  0.24700  Biso   1.000  H
  H9       1.0000 0.29850  0.84190  0.10160  Biso   1.000  H
  H10      1.0000 0.21050  0.82610  0.04490  Biso   1.000  H
  H11      1.0000 0.24270  0.92290  0.06570  Biso   1.000  H
  H12      1.0000 0.09670  0.73590  0.21060  Biso   1.000  H
  H13      1.0000 0.12030  0.71480  0.13090  Biso   1.000  H
  H14      1.0000 0.21330  0.73300  0.18350  Biso   1.000  H
  H15      1.0000 0.03160  0.07680  0.99750  Biso   1.000  H
  H16      1.0000 0.96450  0.16290  0.00810  Biso   1.000  H
  H17      1.0000 0.08780  0.16800  0.00970  Biso   1.000  H
  H18      1.0000 0.90600  0.02310  0.16710  Biso   1.000  H
  H19      1.0000 0.85320  0.07510  0.10460  Biso   1.000  H
  H20      1.0000 0.92530  0.99320  0.08870  Biso   1.000  H
  H21      1.0000 0.38600  0.06200  0.16100  Biso   1.000  H
  H22      1.0000 0.37100  0.97500  0.17300  Biso   1.000  H
  H23      1.0000 0.03400  0.02350  0.81900  Biso   1.000  H
  H24      1.0000 0.85780  0.03670  0.85140  Biso   1.000  H
  H25      1.0000 0.78910  0.94790  0.93950  Biso   1.000  H
  H26      1.0000 0.06830  0.82570  0.95980  Biso   1.000  H
  H27      1.0000 0.28060  0.73610  0.60560  Biso   1.000  H
  H28      1.0000 0.30870  0.62740  0.52140  Biso   1.000  H
  H29      1.0000 0.40980  0.50430  0.54930  Biso   1.000  H
  H30      1.0000 0.44880  0.59600  0.74700  Biso   1.000  H
  H31      1.0000 0.20150  0.15810  0.60160  Biso   1.000  H
  H32      1.0000 0.28950  0.17390  0.54490  Biso   1.000  H
  H33      1.0000 0.25730  0.07710  0.56570  Biso   1.000  H
  H34      1.0000 0.40330  0.26410  0.71060  Biso   1.000  H
  H35      1.0000 0.37970  0.28520  0.63090  Biso   1.000  H
  H36      1.0000 0.28670  0.26700  0.68350  Biso   1.000  H
  H37      1.0000 0.46840  0.92320  0.49750  Biso   1.000  H
  H38      1.0000 0.53550  0.83710  0.50810  Biso   1.000  H
  H39      1.0000 0.41220  0.83200  0.50970  Biso   1.000  H
  H40      1.0000 0.59400  0.97690  0.66710  Biso   1.000  H
  H41      1.0000 0.64680  0.92490  0.60460  Biso   1.000  H
  H42      1.0000 0.57470  0.00680  0.58870  Biso   1.000  H
  H43      1.0000 0.11400  0.93800  0.66100  Biso   1.000  H
  H44      1.0000 0.12900  0.02500  0.67300  Biso   1.000  H
  H45      1.0000 0.53400  0.47650  0.18100  Biso   1.000  H
  H46      1.0000 0.35780  0.46330  0.14860  Biso   1.000  H
  H47      1.0000 0.28910  0.55210  0.06050  Biso   1.000  H
  H48      1.0000 0.56830  0.67430  0.04020  Biso   1.000  H
  H49      1.0000 0.78060  0.76390  0.39440  Biso   1.000  H
  H50      1.0000 0.80870  0.87260  0.47860  Biso   1.000  H
  H51      1.0000 0.90980  0.99570  0.45070  Biso   1.000  H
  H52      1.0000 0.94880  0.90400  0.25300  Biso   1.000  H
  H53      1.0000 0.70150  0.34190  0.39840  Biso   1.000  H
  H54      1.0000 0.78950  0.32610  0.45510  Biso   1.000  H
  H55      1.0000 0.75730  0.42290  0.43430  Biso   1.000  H
  H56      1.0000 0.90330  0.23590  0.28940  Biso   1.000  H
  H57      1.0000 0.87970  0.21480  0.36910  Biso   1.000  H
  H58      1.0000 0.78670  0.23300  0.31650  Biso   1.000  H
  H59      1.0000 0.96840  0.57680  0.50250  Biso   1.000  H
  H60      1.0000 0.03550  0.66290  0.49190  Biso   1.000  H
  H61      1.0000 0.91220  0.66800  0.49030  Biso   1.000  H
  H62      1.0000 0.09400  0.52310  0.33290  Biso   1.000  H
  H63      1.0000 0.14680  0.57510  0.39540  Biso   1.000  H
  H64      1.0000 0.07470  0.49320  0.41130  Biso   1.000  H
  H65      1.0000 0.61400  0.56200  0.33900  Biso   1.000  H
  H66      1.0000 0.62900  0.47500  0.32700  Biso   1.000  H
  H67      1.0000 0.96600  0.52350  0.68100  Biso   1.000  H
  H68      1.0000 0.14220  0.53670  0.64860  Biso   1.000  H
  H69      1.0000 0.21090  0.44790  0.56050  Biso   1.000  H
  H70      1.0000 0.93170  0.32570  0.54020  Biso   1.000  H
  H71      1.0000 0.71940  0.23610  0.89440  Biso   1.000  H
  H72      1.0000 0.69130  0.12740  0.97860  Biso   1.000  H
  H73      1.0000 0.59020  0.00430  0.95070  Biso   1.000  H
  H74      1.0000 0.55120  0.09600  0.75300  Biso   1.000  H
  H75      1.0000 0.79850  0.65810  0.89840  Biso   1.000  H
  H76      1.0000 0.71050  0.67390  0.95510  Biso   1.000  H
  H77      1.0000 0.74270  0.57710  0.93430  Biso   1.000  H
  H78      1.0000 0.59670  0.76410  0.78940  Biso   1.000  H
  H79      1.0000 0.62030  0.78520  0.86910  Biso   1.000  H
  H80      1.0000 0.71330  0.76700  0.81650  Biso   1.000  H
  H81      1.0000 0.53160  0.42320  0.00250  Biso   1.000  H
  H82      1.0000 0.46450  0.33710  0.99190  Biso   1.000  H
  H83      1.0000 0.58780  0.33200  0.99030  Biso   1.000  H
  H84      1.0000 0.40600  0.47690  0.83290  Biso   1.000  H
  H85      1.0000 0.35320  0.42490  0.89540  Biso   1.000  H
  H86      1.0000 0.42530  0.50680  0.91130  Biso   1.000  H
  H87      1.0000 0.88600  0.43800  0.83900  Biso   1.000  H
  H88      1.0000 0.87100  0.52500  0.82700  Biso   1.000  H
  C1       1.0000 0.31720  0.08755  0.36565  Biso   1.000  C
  C2       1.0000 0.43120  0.07645  0.38643  Biso   1.000  C
  C3       1.0000 0.49400  0.01315  0.35376  Biso   1.000  C
  C4       1.0000 0.59950  0.00490  0.37354  Biso   1.000  C
  C5       1.0000 0.64090  0.05860  0.42598  Biso   1.000  C
  C6       1.0000 0.57850  0.12219  0.45859  Biso   1.000  C
  C7       1.0000 0.47360  0.13143  0.43849  Biso   1.000  C
  C8       1.0000 0.62450  0.17848  0.51717  Biso   1.000  C
  C9       1.0000 0.15570  0.25148  0.23937  Biso   1.000  C
  C10      1.0000 0.17990  0.31379  0.11701  Biso   1.000  C
  C11      1.0000 0.16270  0.37855  0.06641  Biso   1.000  C
  C12      1.0000 0.10240  0.45242  0.08329  Biso   1.000  C
  C13      1.0000 0.06032  0.46203  0.15074  Biso   1.000  C
  C14      1.0000 0.07870  0.39745  0.20174  Biso   1.000  C
  C15      1.0000 0.13850  0.32279  0.18488  Biso   1.000  C
  C16      1.0000 0.98846  0.53926  0.16717  Biso   1.000  C
  C17      1.0000 0.23310  0.86360  0.08296  Biso   1.000  C
  C18      1.0000 0.14230  0.74860  0.17140  Biso   1.000  C
  C19      1.0000 0.02770  0.13260  0.02180  Biso   1.000  C
  C20      1.0000 0.91490  0.04320  0.11930  Biso   1.000  C
  C21      1.0000 0.18280  0.91245  0.86565  Biso   1.000  C
  C22      1.0000 0.06880  0.92355  0.88643  Biso   1.000  C
  C23      1.0000 0.00600  0.98685  0.85376  Biso   1.000  C
  C24      1.0000 0.90050  0.99510  0.87354  Biso   1.000  C
  C25      1.0000 0.85910  0.94140  0.92598  Biso   1.000  C
  C26      1.0000 0.92150  0.87781  0.95859  Biso   1.000  C
  C27      1.0000 0.02640  0.86857  0.93849  Biso   1.000  C
  C28      1.0000 0.87550  0.82152  0.01717  Biso   1.000  C
  C29      1.0000 0.34430  0.74852  0.73937  Biso   1.000  C
  C30      1.0000 0.32010  0.68621  0.61701  Biso   1.000  C
  C31      1.0000 0.33730  0.62145  0.56641  Biso   1.000  C
  C32      1.0000 0.39760  0.54758  0.58329  Biso   1.000  C
  C33      1.0000 0.43968  0.53797  0.65074  Biso   1.000  C
  C34      1.0000 0.42130  0.60255  0.70174  Biso   1.000  C
  C35      1.0000 0.36150  0.67721  0.68488  Biso   1.000  C
  C36      1.0000 0.51154  0.46074  0.66717  Biso   1.000  C
  C37      1.0000 0.26690  0.13640  0.58296  Biso   1.000  C
  C38      1.0000 0.35770  0.25140  0.67140  Biso   1.000  C
  C39      1.0000 0.47230  0.86740  0.52180  Biso   1.000  C
  C40      1.0000 0.58510  0.95680  0.61930  Biso   1.000  C
  C41      1.0000 0.68280  0.58755  0.13435  Biso   1.000  C
  C42      1.0000 0.56880  0.57645  0.11357  Biso   1.000  C
  C43      1.0000 0.50600  0.51315  0.14624  Biso   1.000  C
  C44      1.0000 0.40050  0.50490  0.12646  Biso   1.000  C
  C45      1.0000 0.35910  0.55860  0.07402  Biso   1.000  C
  C46      1.0000 0.42150  0.62219  0.04141  Biso   1.000  C
  C47      1.0000 0.52640  0.63143  0.06151  Biso   1.000  C
  C48      1.0000 0.37550  0.67848  0.98283  Biso   1.000  C
  C49      1.0000 0.84430  0.75148  0.26063  Biso   1.000  C
  C50      1.0000 0.82010  0.81379  0.38299  Biso   1.000  C
  C51      1.0000 0.83730  0.87855  0.43359  Biso   1.000  C
  C52      1.0000 0.89760  0.95242  0.41671  Biso   1.000  C
  C53      1.0000 0.93968  0.96203  0.34926  Biso   1.000  C
  C54      1.0000 0.92130  0.89745  0.29826  Biso   1.000  C
  C55      1.0000 0.86150  0.82279  0.31512  Biso   1.000  C
  C56      1.0000 0.01154  0.03926  0.33283  Biso   1.000  C
  C57      1.0000 0.76690  0.36360  0.41704  Biso   1.000  C
  C58      1.0000 0.85770  0.24860  0.32860  Biso   1.000  C
  C59      1.0000 0.97230  0.63260  0.47820  Biso   1.000  C
  C60      1.0000 0.08510  0.54320  0.38070  Biso   1.000  C
  C61      1.0000 0.81720  0.41245  0.63435  Biso   1.000  C
  C62      1.0000 0.93120  0.42355  0.61357  Biso   1.000  C
  C63      1.0000 0.99400  0.48685  0.64624  Biso   1.000  C
  C64      1.0000 0.09950  0.49510  0.62646  Biso   1.000  C
  C65      1.0000 0.14090  0.44140  0.57402  Biso   1.000  C
  C66      1.0000 0.07850  0.37781  0.54141  Biso   1.000  C
  C67      1.0000 0.97360  0.36857  0.56151  Biso   1.000  C
  C68      1.0000 0.12450  0.32152  0.48283  Biso   1.000  C
  C69      1.0000 0.65570  0.24852  0.76063  Biso   1.000  C
  C70      1.0000 0.67990  0.18621  0.88299  Biso   1.000  C
  C71      1.0000 0.66270  0.12145  0.93359  Biso   1.000  C
  C72      1.0000 0.60240  0.04758  0.91671  Biso   1.000  C
  C73      1.0000 0.56032  0.03797  0.84926  Biso   1.000  C
  C74      1.0000 0.57870  0.10255  0.79826  Biso   1.000  C
  C75      1.0000 0.63850  0.17721  0.81512  Biso   1.000  C
  C76      1.0000 0.48846  0.96074  0.83283  Biso   1.000  C
  C77      1.0000 0.73310  0.63640  0.91704  Biso   1.000  C
  C78      1.0000 0.64230  0.75140  0.82860  Biso   1.000  C
  C79      1.0000 0.52770  0.36740  0.97820  Biso   1.000  C
  C80      1.0000 0.41490  0.45680  0.88070  Biso   1.000  C
  S1       1.0000 0.13588  0.86357  0.15108  Biso   1.000  S
  S2       1.0000 0.02614  0.11396  0.11439  Biso   1.000  S
  S3       1.0000 0.36412  0.13643  0.65108  Biso   1.000  S
  S4       1.0000 0.47386  0.88604  0.61439  Biso   1.000  S
  S5       1.0000 0.86412  0.36357  0.34892  Biso   1.000  S
  S6       1.0000 0.97386  0.61396  0.38561  Biso   1.000  S
  S7       1.0000 0.63588  0.63643  0.84892  Biso   1.000  S
  S8       1.0000 0.52614  0.38604  0.88561  Biso   1.000  S
  O1       1.0000 0.27835  0.03562  0.32094  Biso   1.000  O
  O2       1.0000 0.26971  0.14922  0.39702  Biso   1.000  O
  O3       1.0000 0.56602  0.24118  0.54013  Biso   1.000  O
  O4       1.0000 0.71280  0.16217  0.53976  Biso   1.000  O
  O5       1.0000 0.21224  0.18659  0.22331  Biso   1.000  O
  O6       1.0000 0.11016  0.26390  0.29802  Biso   1.000  O
  O7       1.0000 0.95354  0.54777  0.22813  Biso   1.000  O
  O8       1.0000 0.96897  0.58954  0.11529  Biso   1.000  O
  O9       1.0000 0.34168  0.02851  0.17423  Biso   1.000  O
  O10      1.0000 0.18657  0.90829  0.21409  Biso   1.000  O
  O11      1.0000 0.12212  0.05649  0.12712  Biso   1.000  O
  O12      1.0000 0.22165  0.96438  0.82094  Biso   1.000  O
  O13      1.0000 0.23029  0.85078  0.89702  Biso   1.000  O
  O14      1.0000 0.93398  0.75882  0.04013  Biso   1.000  O
  O15      1.0000 0.78720  0.83783  0.03976  Biso   1.000  O
  O16      1.0000 0.28776  0.81341  0.72331  Biso   1.000  O
  O17      1.0000 0.38984  0.73610  0.79802  Biso   1.000  O
  O18      1.0000 0.54646  0.45223  0.72813  Biso   1.000  O
  O19      1.0000 0.53103  0.41046  0.61529  Biso   1.000  O
  O20      1.0000 0.15832  0.97149  0.67423  Biso   1.000  O
  O21      1.0000 0.31343  0.09171  0.71409  Biso   1.000  O
  O22      1.0000 0.37788  0.94351  0.62712  Biso   1.000  O
  O23      1.0000 0.72165  0.53562  0.17906  Biso   1.000  O
  O24      1.0000 0.73029  0.64922  0.10298  Biso   1.000  O
  O25      1.0000 0.43398  0.74118  0.95987  Biso   1.000  O
  O26      1.0000 0.28720  0.66217  0.96024  Biso   1.000  O
  O27      1.0000 0.78776  0.68659  0.27669  Biso   1.000  O
  O28      1.0000 0.88984  0.76390  0.20198  Biso   1.000  O
  O29      1.0000 0.04646  0.04777  0.27187  Biso   1.000  O
  O30      1.0000 0.03103  0.08954  0.38471  Biso   1.000  O
  O31      1.0000 0.65832  0.52851  0.32577  Biso   1.000  O
  O32      1.0000 0.81343  0.40829  0.28591  Biso   1.000  O
  O33      1.0000 0.87788  0.55649  0.37288  Biso   1.000  O
  O34      1.0000 0.77835  0.46438  0.67906  Biso   1.000  O
  O35      1.0000 0.76971  0.35078  0.60298  Biso   1.000  O
  O36      1.0000 0.06602  0.25882  0.45987  Biso   1.000  O
  O37      1.0000 0.21280  0.33783  0.46024  Biso   1.000  O
  O38      1.0000 0.71224  0.31341  0.77669  Biso   1.000  O
  O39      1.0000 0.61016  0.23610  0.70198  Biso   1.000  O
  O40      1.0000 0.45354  0.95223  0.77187  Biso   1.000  O
  O41      1.0000 0.46897  0.91046  0.88471  Biso   1.000  O
  O42      1.0000 0.84168  0.47149  0.82577  Biso   1.000  O
  O43      1.0000 0.68657  0.59171  0.78591  Biso   1.000  O
  O44      1.0000 0.62212  0.44351  0.87288  Biso   1.000  O
