data_image0
_cell_length_a       12.3202
_cell_length_b       12.6137
_cell_length_c       12.6137
_cell_angle_alpha    76.202
_cell_angle_beta     60.7669
_cell_angle_gamma    60.7669

_symmetry_space_group_name_H-M    P 1
_symmetry_int_tables_number       1

loop_
  _symmetry_equiv_pos_as_xyz
  'x, y, z'

loop_
  _atom_site_label
  _atom_site_occupancy
  _atom_site_fract_x
  _atom_site_fract_y
  _atom_site_fract_z
  _atom_site_thermal_displace_type
  _atom_site_B_iso_or_equiv
  _atom_site_type_symbol
  In1      1.0000 0.31204  0.37593  1.00000  Biso   1.000  In
  In2      1.0000 0.68796  0.62407  0.00000  Biso   1.000  In
  In3      1.0000 0.56203  0.50000  0.87594  Biso   1.000  In
  In4      1.0000 0.93797  0.50000  0.12406  Biso   1.000  In
  H1       1.0000 0.27110  0.44620  0.67420  Biso   1.000  H
  H2       1.0000 0.39150  0.55380  0.32580  Biso   1.000  H
  H3       1.0000 0.19530  0.82580  0.94620  Biso   1.000  H
  H4       1.0000 0.96730  0.17420  0.05380  Biso   1.000  H
  H5       1.0000 0.85850  0.17420  0.94620  Biso   1.000  H
  H6       1.0000 0.97890  0.82580  0.05380  Biso   1.000  H
  H7       1.0000 0.28270  0.44620  0.32580  Biso   1.000  H
  H8       1.0000 0.05470  0.55380  0.67420  Biso   1.000  H
  H9       1.0000 0.12500  0.55740  0.94260  Biso   1.000  H
  H10      1.0000 0.62500  0.44260  0.05740  Biso   1.000  H
  H11      1.0000 0.31760  0.55740  0.05740  Biso   1.000  H
  H12      1.0000 0.93240  0.44260  0.94260  Biso   1.000  H
  H13      1.0000 0.61410  0.50000  0.50000  Biso   1.000  H
  H14      1.0000 0.36410  0.00000  0.00000  Biso   1.000  H
  H15      1.0000 0.63590  0.00000  0.00000  Biso   1.000  H
  H16      1.0000 0.88590  0.50000  0.50000  Biso   1.000  H
  C1       1.0000 0.33222  0.46886  0.60450  Biso   1.000  C
  C2       1.0000 0.44293  0.47107  0.60607  Biso   1.000  C
  C3       1.0000 0.45724  0.44683  0.72121  Biso   1.000  C
  C4       1.0000 0.40558  0.53114  0.39550  Biso   1.000  C
  C5       1.0000 0.52007  0.52893  0.39393  Biso   1.000  C
  C6       1.0000 0.62528  0.55317  0.27879  Biso   1.000  C
  C7       1.0000 0.18672  0.89550  0.96886  Biso   1.000  C
  C8       1.0000 0.29900  0.89393  0.97107  Biso   1.000  C
  C9       1.0000 0.42845  0.77879  0.94683  Biso   1.000  C
  C10      1.0000 0.05108  0.10450  0.03114  Biso   1.000  C
  C11      1.0000 0.16400  0.10607  0.02893  Biso   1.000  C
  C12      1.0000 0.15407  0.22121  0.05317  Biso   1.000  C
  C13      1.0000 0.84442  0.10450  0.96886  Biso   1.000  C
  C14      1.0000 0.72993  0.10607  0.97107  Biso   1.000  C
  C15      1.0000 0.62472  0.22121  0.94683  Biso   1.000  C
  C16      1.0000 0.91778  0.89550  0.03114  Biso   1.000  C
  C17      1.0000 0.80707  0.89393  0.02893  Biso   1.000  C
  C18      1.0000 0.79276  0.77879  0.05317  Biso   1.000  C
  C19      1.0000 0.19892  0.46886  0.39550  Biso   1.000  C
  C20      1.0000 0.08600  0.47107  0.39393  Biso   1.000  C
  C21      1.0000 0.09593  0.44683  0.27879  Biso   1.000  C
  C22      1.0000 0.06328  0.53114  0.60450  Biso   1.000  C
  C23      1.0000 0.95100  0.52893  0.60607  Biso   1.000  C
  C24      1.0000 0.82155  0.55317  0.72121  Biso   1.000  C
  C25      1.0000 0.31130  0.50000  0.50000  Biso   1.000  C
  C26      1.0000 0.53860  0.50000  0.50000  Biso   1.000  C
  C27      1.0000 0.06130  0.00000  0.00000  Biso   1.000  C
  C28      1.0000 0.28860  0.00000  0.00000  Biso   1.000  C
  C29      1.0000 0.93870  1.00000  0.00000  Biso   1.000  C
  C30      1.0000 0.71140  0.00000  0.00000  Biso   1.000  C
  C31      1.0000 0.18870  0.50000  0.50000  Biso   1.000  C
  C32      1.0000 0.96140  0.50000  0.50000  Biso   1.000  C
  O1       1.0000 0.40271  0.38379  0.80085  Biso   1.000  O
  O2       1.0000 0.52479  0.49397  0.72813  Biso   1.000  O
  O3       1.0000 0.58735  0.61621  0.19915  Biso   1.000  O
  O4       1.0000 0.74689  0.50603  0.27187  Biso   1.000  O
  O5       1.0000 0.45356  0.69915  0.88379  Biso   1.000  O
  O6       1.0000 0.50292  0.77187  0.99397  Biso   1.000  O
  O7       1.0000 0.03650  0.30085  0.11621  Biso   1.000  O
  O8       1.0000 0.26876  0.22813  0.00603  Biso   1.000  O
  O9       1.0000 0.66265  0.30085  0.88379  Biso   1.000  O
  O10      1.0000 0.50311  0.22813  0.99397  Biso   1.000  O
  O11      1.0000 0.84729  0.69915  0.11621  Biso   1.000  O
  O12      1.0000 0.72521  0.77187  0.00603  Biso   1.000  O
  O13      1.0000 0.21350  0.38379  0.19915  Biso   1.000  O
  O14      1.0000 0.98124  0.49397  0.27187  Biso   1.000  O
  O15      1.0000 0.79644  0.61621  0.80085  Biso   1.000  O
  O16      1.0000 0.74708  0.50603  0.72813  Biso   1.000  O
  O17      1.0000 0.12500  0.50100  0.99900  Biso   1.000  O
  O18      1.0000 0.62500  0.49900  0.00100  Biso   1.000  O
  O19      1.0000 0.37400  0.50100  0.00100  Biso   1.000  O
  O20      1.0000 0.87600  0.49900  0.99900  Biso   1.000  O
