data_image0
_cell_length_a       7.01
_cell_length_b       9.1462
_cell_length_c       15.496
_cell_angle_alpha    97.96
_cell_angle_beta     98.39
_cell_angle_gamma    92.01

_symmetry_space_group_name_H-M    P 1
_symmetry_int_tables_number       1

loop_
  _symmetry_equiv_pos_as_xyz
  'x, y, z'

loop_
  _atom_site_label
  _atom_site_occupancy
  _atom_site_fract_x
  _atom_site_fract_y
  _atom_site_fract_z
  _atom_site_thermal_displace_type
  _atom_site_B_iso_or_equiv
  _atom_site_type_symbol
  Ag1      1.0000 0.45200  0.66069  0.60430  Biso   1.000  Ag
  Ag2      1.0000 0.16896  0.44751  0.29114  Biso   1.000  Ag
  Ag3      1.0000 0.54800  0.33931  0.39570  Biso   1.000  Ag
  Ag4      1.0000 0.83104  0.55249  0.70886  Biso   1.000  Ag
  H1       1.0000 0.23310  0.69850  0.17980  Biso   1.000  H
  H2       1.0000 0.27150  0.74190  0.03970  Biso   1.000  H
  H3       1.0000 0.22590  0.30160  0.96180  Biso   1.000  H
  H4       1.0000 0.18660  0.26950  0.10210  Biso   1.000  H
  H5       1.0000 0.29980  0.77450  0.91640  Biso   1.000  H
  H6       1.0000 0.37010  0.81250  0.77920  Biso   1.000  H
  H7       1.0000 0.33280  0.38480  0.69990  Biso   1.000  H
  H8       1.0000 0.27100  0.33680  0.83460  Biso   1.000  H
  H9       1.0000 0.00490  0.13070  0.27410  Biso   1.000  H
  H10      1.0000 0.94500  0.94300  0.35070  Biso   1.000  H
  H11      1.0000 0.10150  0.22630  0.57730  Biso   1.000  H
  H12      1.0000 0.15880  0.40890  0.49340  Biso   1.000  H
  H13      1.0000 0.76690  0.30150  0.82020  Biso   1.000  H
  H14      1.0000 0.72850  0.25810  0.96030  Biso   1.000  H
  H15      1.0000 0.77410  0.69840  0.03820  Biso   1.000  H
  H16      1.0000 0.81340  0.73050  0.89790  Biso   1.000  H
  H17      1.0000 0.70020  0.22550  0.08360  Biso   1.000  H
  H18      1.0000 0.62990  0.18750  0.22080  Biso   1.000  H
  H19      1.0000 0.66720  0.61520  0.30010  Biso   1.000  H
  H20      1.0000 0.72900  0.66320  0.16540  Biso   1.000  H
  H21      1.0000 0.99510  0.86930  0.72590  Biso   1.000  H
  H22      1.0000 0.05500  0.05700  0.64930  Biso   1.000  H
  H23      1.0000 0.89850  0.77370  0.42270  Biso   1.000  H
  H24      1.0000 0.84120  0.59110  0.50660  Biso   1.000  H
  C1       1.0000 0.35320  0.71510  0.40940  Biso   1.000  C
  C2       1.0000 0.43690  0.86540  0.45560  Biso   1.000  C
  C3       1.0000 0.52190  0.01700  0.58870  Biso   1.000  C
  C4       1.0000 0.52550  0.03350  0.68800  Biso   1.000  C
  C5       1.0000 0.23070  0.61640  0.13480  Biso   1.000  C
  C6       1.0000 0.25460  0.64320  0.05100  Biso   1.000  C
  C7       1.0000 0.25400  0.52590  0.98340  Biso   1.000  C
  C8       1.0000 0.22760  0.38580  0.00540  Biso   1.000  C
  C9       1.0000 0.20410  0.36740  0.08940  Biso   1.000  C
  C10      1.0000 0.28210  0.55110  0.89320  Biso   1.000  C
  C11      1.0000 0.30920  0.69160  0.87320  Biso   1.000  C
  C12      1.0000 0.35040  0.71410  0.79050  Biso   1.000  C
  C13      1.0000 0.32980  0.46600  0.74500  Biso   1.000  C
  C14      1.0000 0.29140  0.43630  0.82530  Biso   1.000  C
  C15      1.0000 0.02500  0.15060  0.33660  Biso   1.000  C
  C16      1.0000 0.98950  0.03770  0.38200  Biso   1.000  C
  C17      1.0000 0.01780  0.06010  0.47400  Biso   1.000  C
  C18      1.0000 0.08130  0.20380  0.51480  Biso   1.000  C
  C19      1.0000 0.11460  0.31280  0.46430  Biso   1.000  C
  C20      1.0000 0.64680  0.28490  0.59060  Biso   1.000  C
  C21      1.0000 0.56310  0.13460  0.54440  Biso   1.000  C
  C22      1.0000 0.47810  0.98300  0.41130  Biso   1.000  C
  C23      1.0000 0.47450  0.96650  0.31200  Biso   1.000  C
  C24      1.0000 0.76930  0.38360  0.86520  Biso   1.000  C
  C25      1.0000 0.74540  0.35680  0.94900  Biso   1.000  C
  C26      1.0000 0.74600  0.47410  0.01660  Biso   1.000  C
  C27      1.0000 0.77240  0.61420  0.99460  Biso   1.000  C
  C28      1.0000 0.79590  0.63260  0.91060  Biso   1.000  C
  C29      1.0000 0.71790  0.44890  0.10680  Biso   1.000  C
  C30      1.0000 0.69080  0.30840  0.12680  Biso   1.000  C
  C31      1.0000 0.64960  0.28590  0.20950  Biso   1.000  C
  C32      1.0000 0.67020  0.53400  0.25500  Biso   1.000  C
  C33      1.0000 0.70860  0.56370  0.17470  Biso   1.000  C
  C34      1.0000 0.97500  0.84940  0.66340  Biso   1.000  C
  C35      1.0000 0.01050  0.96230  0.61800  Biso   1.000  C
  C36      1.0000 0.98220  0.93990  0.52600  Biso   1.000  C
  C37      1.0000 0.91870  0.79620  0.48520  Biso   1.000  C
  C38      1.0000 0.88540  0.68720  0.53570  Biso   1.000  C
  N1       1.0000 0.46130  0.88430  0.54443  Biso   1.000  N
  N2       1.0000 0.20430  0.48070  0.15508  Biso   1.000  N
  N3       1.0000 0.36310  0.60150  0.72624  Biso   1.000  N
  N4       1.0000 0.08650  0.28780  0.37490  Biso   1.000  N
  N5       1.0000 0.53870  0.11570  0.45557  Biso   1.000  N
  N6       1.0000 0.79570  0.51930  0.84492  Biso   1.000  N
  N7       1.0000 0.63690  0.39850  0.27376  Biso   1.000  N
  N8       1.0000 0.91350  0.71220  0.62510  Biso   1.000  N
  O1       1.0000 0.24150  0.71230  0.33935  Biso   1.000  O
  O2       1.0000 0.40120  0.60440  0.44689  Biso   1.000  O
  O3       1.0000 0.62150  0.94430  0.72772  Biso   1.000  O
  O4       1.0000 0.41930  0.12960  0.71812  Biso   1.000  O
  O5       1.0000 0.75850  0.28770  0.66065  Biso   1.000  O
  O6       1.0000 0.59880  0.39560  0.55311  Biso   1.000  O
  O7       1.0000 0.37850  0.05570  0.27228  Biso   1.000  O
  O8       1.0000 0.58070  0.87040  0.28188  Biso   1.000  O
