data_image0
_cell_length_a       8.875
_cell_length_b       13.843
_cell_length_c       21.934
_cell_angle_alpha    90
_cell_angle_beta     90
_cell_angle_gamma    90

_symmetry_space_group_name_H-M    P 1
_symmetry_int_tables_number       1

loop_
  _symmetry_equiv_pos_as_xyz
  'x, y, z'

loop_
  _atom_site_label
  _atom_site_occupancy
  _atom_site_fract_x
  _atom_site_fract_y
  _atom_site_fract_z
  _atom_site_thermal_displace_type
  _atom_site_B_iso_or_equiv
  _atom_site_type_symbol
  Cd1      1.0000 0.75000  0.68550  0.86930  Biso   1.000  Cd
  Cd2      1.0000 0.25000  0.18550  0.63070  Biso   1.000  Cd
  Cd3      1.0000 0.25000  0.31450  0.13070  Biso   1.000  Cd
  Cd4      1.0000 0.75000  0.81450  0.36930  Biso   1.000  Cd
  Cd5      1.0000 0.25000  0.56610  0.72720  Biso   1.000  Cd
  Cd6      1.0000 0.25000  0.68360  0.02360  Biso   1.000  Cd
  Cd7      1.0000 0.75000  0.06610  0.77280  Biso   1.000  Cd
  Cd8      1.0000 0.75000  0.18360  0.47640  Biso   1.000  Cd
  Cd9      1.0000 0.75000  0.43390  0.27280  Biso   1.000  Cd
  Cd10     1.0000 0.75000  0.31640  0.97640  Biso   1.000  Cd
  Cd11     1.0000 0.25000  0.93390  0.22720  Biso   1.000  Cd
  Cd12     1.0000 0.25000  0.81640  0.52360  Biso   1.000  Cd
  C1       1.0000 0.05000  0.70900  0.96900  Biso   1.000  C
  C2       1.0000 0.04700  0.61300  0.77400  Biso   1.000  C
  C3       1.0000 0.95000  0.20900  0.53100  Biso   1.000  C
  C4       1.0000 0.95300  0.11300  0.72600  Biso   1.000  C
  C5       1.0000 0.55000  0.29100  0.03100  Biso   1.000  C
  C6       1.0000 0.54700  0.38700  0.22600  Biso   1.000  C
  C7       1.0000 0.45000  0.79100  0.46900  Biso   1.000  C
  C8       1.0000 0.45300  0.88700  0.27400  Biso   1.000  C
  C9       1.0000 0.95000  0.29100  0.03100  Biso   1.000  C
  C10      1.0000 0.95300  0.38700  0.22600  Biso   1.000  C
  C11      1.0000 0.05000  0.79100  0.46900  Biso   1.000  C
  C12      1.0000 0.04700  0.88700  0.27400  Biso   1.000  C
  C13      1.0000 0.45000  0.70900  0.96900  Biso   1.000  C
  C14      1.0000 0.45300  0.61300  0.77400  Biso   1.000  C
  C15      1.0000 0.55000  0.20900  0.53100  Biso   1.000  C
  C16      1.0000 0.54700  0.11300  0.72600  Biso   1.000  C
  C17      1.0000 0.75000  0.45800  0.93400  Biso   1.000  C
  C18      1.0000 0.75000  0.91800  0.80800  Biso   1.000  C
  C19      1.0000 0.25000  0.95800  0.56600  Biso   1.000  C
  C20      1.0000 0.25000  0.41800  0.69200  Biso   1.000  C
  C21      1.0000 0.25000  0.54200  0.06600  Biso   1.000  C
  C22      1.0000 0.25000  0.08200  0.19200  Biso   1.000  C
  C23      1.0000 0.75000  0.04200  0.43400  Biso   1.000  C
  C24      1.0000 0.75000  0.58200  0.30800  Biso   1.000  C
  C25      1.0000 0.25000  0.78300  0.11100  Biso   1.000  C
  C26      1.0000 0.25000  0.66700  0.64900  Biso   1.000  C
  C27      1.0000 0.75000  0.28300  0.38900  Biso   1.000  C
  C28      1.0000 0.75000  0.16700  0.85100  Biso   1.000  C
  C29      1.0000 0.75000  0.21700  0.88900  Biso   1.000  C
  C30      1.0000 0.75000  0.33300  0.35100  Biso   1.000  C
  C31      1.0000 0.25000  0.71700  0.61100  Biso   1.000  C
  C32      1.0000 0.25000  0.83300  0.14900  Biso   1.000  C
  N1       1.0000 0.95400  0.71800  0.93720  Biso   1.000  N
  N2       1.0000 0.94400  0.64000  0.79700  Biso   1.000  N
  N3       1.0000 0.04600  0.21800  0.56280  Biso   1.000  N
  N4       1.0000 0.05600  0.14000  0.70300  Biso   1.000  N
  N5       1.0000 0.45400  0.28200  0.06280  Biso   1.000  N
  N6       1.0000 0.44400  0.36000  0.20300  Biso   1.000  N
  N7       1.0000 0.54600  0.78200  0.43720  Biso   1.000  N
  N8       1.0000 0.55600  0.86000  0.29700  Biso   1.000  N
  N9       1.0000 0.04600  0.28200  0.06280  Biso   1.000  N
  N10      1.0000 0.05600  0.36000  0.20300  Biso   1.000  N
  N11      1.0000 0.95400  0.78200  0.43720  Biso   1.000  N
  N12      1.0000 0.94400  0.86000  0.29700  Biso   1.000  N
  N13      1.0000 0.54600  0.71800  0.93720  Biso   1.000  N
  N14      1.0000 0.55600  0.64000  0.79700  Biso   1.000  N
  N15      1.0000 0.45400  0.21800  0.56280  Biso   1.000  N
  N16      1.0000 0.44400  0.14000  0.70300  Biso   1.000  N
  N17      1.0000 0.75000  0.52800  0.90800  Biso   1.000  N
  N18      1.0000 0.75000  0.84700  0.83000  Biso   1.000  N
  N19      1.0000 0.25000  0.02800  0.59200  Biso   1.000  N
  N20      1.0000 0.25000  0.34700  0.67000  Biso   1.000  N
  N21      1.0000 0.25000  0.47200  0.09200  Biso   1.000  N
  N22      1.0000 0.25000  0.15300  0.17000  Biso   1.000  N
  N23      1.0000 0.75000  0.97200  0.40800  Biso   1.000  N
  N24      1.0000 0.75000  0.65300  0.33000  Biso   1.000  N
