data_image0
_cell_length_a       12.725
_cell_length_b       13.57
_cell_length_c       14.12
_cell_angle_alpha    66.224
_cell_angle_beta     67.182
_cell_angle_gamma    77.113

_symmetry_space_group_name_H-M    P 1
_symmetry_int_tables_number       1

loop_
  _symmetry_equiv_pos_as_xyz
  'x, y, z'

loop_
  _atom_site_label
  _atom_site_occupancy
  _atom_site_fract_x
  _atom_site_fract_y
  _atom_site_fract_z
  _atom_site_thermal_displace_type
  _atom_site_B_iso_or_equiv
  _atom_site_type_symbol
  Y1       1.0000 0.07138  0.61813  0.48868  Biso   1.000  Y
  Y2       1.0000 0.06814  0.67923  0.83485  Biso   1.000  Y
  Y3       1.0000 0.92862  0.38187  0.51132  Biso   1.000  Y
  Y4       1.0000 0.93186  0.32077  0.16515  Biso   1.000  Y
  H1       1.0000 0.08750  0.75380  0.36180  Biso   1.000  H
  H2       1.0000 0.14720  0.83270  0.38750  Biso   1.000  H
  H3       1.0000 0.02220  0.51210  0.77350  Biso   1.000  H
  H4       1.0000 0.04250  0.53140  0.86420  Biso   1.000  H
  H5       1.0000 0.04970  0.81030  0.97430  Biso   1.000  H
  H6       1.0000 0.97790  0.72180  0.97140  Biso   1.000  H
  H7       1.0000 0.42360  0.62770  0.41580  Biso   1.000  H
  H8       1.0000 0.69510  0.63020  0.47530  Biso   1.000  H
  H9       1.0000 0.39230  0.63150  0.70690  Biso   1.000  H
  H10      1.0000 0.47490  0.73470  0.73810  Biso   1.000  H
  H11      1.0000 0.54770  0.76380  0.84930  Biso   1.000  H
  H12      1.0000 0.72490  0.68660  0.85820  Biso   1.000  H
  H13      1.0000 0.82840  0.57940  0.75670  Biso   1.000  H
  H14      1.0000 0.08330  0.15570  0.77410  Biso   1.000  H
  H15      1.0000 0.29400  0.11960  0.92450  Biso   1.000  H
  H16      1.0000 0.20070  0.41740  0.75050  Biso   1.000  H
  H17      1.0000 0.48000  0.23830  0.80330  Biso   1.000  H
  H18      1.0000 0.60680  0.32190  0.82180  Biso   1.000  H
  H19      1.0000 0.54490  0.45550  0.89400  Biso   1.000  H
  H20      1.0000 0.35260  0.51600  0.94210  Biso   1.000  H
  H21      1.0000 0.35670  0.87750  0.82220  Biso   1.000  H
  H22      1.0000 0.48430  0.00350  0.75100  Biso   1.000  H
  H23      1.0000 0.49270  0.14430  0.58430  Biso   1.000  H
  H24      1.0000 0.38050  0.14690  0.48770  Biso   1.000  H
  H25      1.0000 0.27670  0.86620  0.52690  Biso   1.000  H
  H26      1.0000 0.09190  0.02780  0.34350  Biso   1.000  H
  H27      1.0000 0.17520  0.17250  0.49700  Biso   1.000  H
  H28      1.0000 0.91250  0.24620  0.63820  Biso   1.000  H
  H29      1.0000 0.85280  0.16730  0.61250  Biso   1.000  H
  H30      1.0000 0.97780  0.48790  0.22650  Biso   1.000  H
  H31      1.0000 0.95750  0.46860  0.13580  Biso   1.000  H
  H32      1.0000 0.95030  0.18970  0.02570  Biso   1.000  H
  H33      1.0000 0.02210  0.27820  0.02860  Biso   1.000  H
  H34      1.0000 0.57640  0.37230  0.58420  Biso   1.000  H
  H35      1.0000 0.30490  0.36980  0.52470  Biso   1.000  H
  H36      1.0000 0.60770  0.36850  0.29310  Biso   1.000  H
  H37      1.0000 0.52510  0.26530  0.26190  Biso   1.000  H
  H38      1.0000 0.45230  0.23620  0.15070  Biso   1.000  H
  H39      1.0000 0.27510  0.31340  0.14180  Biso   1.000  H
  H40      1.0000 0.17160  0.42060  0.24330  Biso   1.000  H
  H41      1.0000 0.91670  0.84430  0.22590  Biso   1.000  H
  H42      1.0000 0.70600  0.88040  0.07550  Biso   1.000  H
  H43      1.0000 0.79930  0.58260  0.24950  Biso   1.000  H
  H44      1.0000 0.52000  0.76170  0.19670  Biso   1.000  H
  H45      1.0000 0.39320  0.67810  0.17820  Biso   1.000  H
  H46      1.0000 0.45510  0.54450  0.10600  Biso   1.000  H
  H47      1.0000 0.64740  0.48400  0.05790  Biso   1.000  H
  H48      1.0000 0.64330  0.12250  0.17780  Biso   1.000  H
  H49      1.0000 0.51570  0.99650  0.24900  Biso   1.000  H
  H50      1.0000 0.50730  0.85570  0.41570  Biso   1.000  H
  H51      1.0000 0.61950  0.85310  0.51230  Biso   1.000  H
  H52      1.0000 0.72330  0.13380  0.47310  Biso   1.000  H
  H53      1.0000 0.90810  0.97220  0.65650  Biso   1.000  H
  H54      1.0000 0.82480  0.82750  0.50300  Biso   1.000  H
  C1       1.0000 0.25850  0.63780  0.59780  Biso   1.000  C
  C2       1.0000 0.38660  0.63350  0.56470  Biso   1.000  C
  C3       1.0000 0.45690  0.62980  0.46300  Biso   1.000  C
  C4       1.0000 0.61600  0.63020  0.49900  Biso   1.000  C
  C5       1.0000 0.55480  0.63130  0.60420  Biso   1.000  C
  C6       1.0000 0.43750  0.63200  0.63680  Biso   1.000  C
  C7       1.0000 0.60780  0.64190  0.67520  Biso   1.000  C
  C8       1.0000 0.54730  0.70360  0.74010  Biso   1.000  C
  C9       1.0000 0.59040  0.72090  0.80770  Biso   1.000  C
  C10      1.0000 0.69520  0.67510  0.81320  Biso   1.000  C
  C11      1.0000 0.75720  0.61150  0.75180  Biso   1.000  C
  C12      1.0000 0.71600  0.59400  0.68290  Biso   1.000  C
  C13      1.0000 0.79000  0.52310  0.62280  Biso   1.000  C
  C14      1.0000 0.06440  0.36850  0.67540  Biso   1.000  C
  C15      1.0000 0.13110  0.29680  0.75030  Biso   1.000  C
  C16      1.0000 0.12870  0.18560  0.79200  Biso   1.000  C
  C17      1.0000 0.25170  0.16520  0.88020  Biso   1.000  C
  C18      1.0000 0.26050  0.27520  0.84460  Biso   1.000  C
  C19      1.0000 0.19790  0.34290  0.77710  Biso   1.000  C
  C20      1.0000 0.33770  0.32320  0.86850  Biso   1.000  C
  C21      1.0000 0.45340  0.29240  0.83350  Biso   1.000  C
  C22      1.0000 0.52920  0.34340  0.84400  Biso   1.000  C
  C23      1.0000 0.49270  0.42370  0.88610  Biso   1.000  C
  C24      1.0000 0.37770  0.45810  0.91730  Biso   1.000  C
  C25      1.0000 0.29990  0.40510  0.91100  Biso   1.000  C
  C26      1.0000 0.17500  0.43590  0.96410  Biso   1.000  C
  C27      1.0000 0.21590  0.84310  0.74990  Biso   1.000  C
  C28      1.0000 0.29460  0.93060  0.69730  Biso   1.000  C
  C29      1.0000 0.36280  0.93100  0.75400  Biso   1.000  C
  C30      1.0000 0.43740  0.00670  0.71290  Biso   1.000  C
  C31      1.0000 0.44360  0.09020  0.61220  Biso   1.000  C
  C32      1.0000 0.37640  0.09180  0.55460  Biso   1.000  C
  C33      1.0000 0.30160  0.01020  0.59680  Biso   1.000  C
  C34      1.0000 0.23660  0.01620  0.52540  Biso   1.000  C
  C35      1.0000 0.23720  0.93060  0.49710  Biso   1.000  C
  C36      1.0000 0.12990  0.02500  0.38920  Biso   1.000  C
  C37      1.0000 0.12430  0.11800  0.40950  Biso   1.000  C
  C38      1.0000 0.17820  0.11230  0.48010  Biso   1.000  C
  C39      1.0000 0.05980  0.21790  0.35850  Biso   1.000  C
  C40      1.0000 0.74150  0.36220  0.40220  Biso   1.000  C
  C41      1.0000 0.61340  0.36650  0.43530  Biso   1.000  C
  C42      1.0000 0.54310  0.37020  0.53700  Biso   1.000  C
  C43      1.0000 0.38400  0.36980  0.50100  Biso   1.000  C
  C44      1.0000 0.44520  0.36870  0.39580  Biso   1.000  C
  C45      1.0000 0.56250  0.36800  0.36320  Biso   1.000  C
  C46      1.0000 0.39220  0.35810  0.32480  Biso   1.000  C
  C47      1.0000 0.45270  0.29640  0.25990  Biso   1.000  C
  C48      1.0000 0.40960  0.27910  0.19230  Biso   1.000  C
  C49      1.0000 0.30480  0.32490  0.18680  Biso   1.000  C
  C50      1.0000 0.24280  0.38850  0.24820  Biso   1.000  C
  C51      1.0000 0.28400  0.40600  0.31710  Biso   1.000  C
  C52      1.0000 0.21000  0.47690  0.37720  Biso   1.000  C
  C53      1.0000 0.93560  0.63150  0.32460  Biso   1.000  C
  C54      1.0000 0.86890  0.70320  0.24970  Biso   1.000  C
  C55      1.0000 0.87130  0.81440  0.20800  Biso   1.000  C
  C56      1.0000 0.74830  0.83480  0.11980  Biso   1.000  C
  C57      1.0000 0.73950  0.72480  0.15540  Biso   1.000  C
  C58      1.0000 0.80210  0.65710  0.22290  Biso   1.000  C
  C59      1.0000 0.66230  0.67680  0.13150  Biso   1.000  C
  C60      1.0000 0.54660  0.70760  0.16650  Biso   1.000  C
  C61      1.0000 0.47080  0.65660  0.15600  Biso   1.000  C
  C62      1.0000 0.50730  0.57630  0.11390  Biso   1.000  C
  C63      1.0000 0.62230  0.54190  0.08270  Biso   1.000  C
  C64      1.0000 0.70010  0.59490  0.08900  Biso   1.000  C
  C65      1.0000 0.82500  0.56410  0.03590  Biso   1.000  C
  C66      1.0000 0.78410  0.15690  0.25010  Biso   1.000  C
  C67      1.0000 0.70540  0.06940  0.30270  Biso   1.000  C
  C68      1.0000 0.63720  0.06900  0.24600  Biso   1.000  C
  C69      1.0000 0.56260  0.99330  0.28710  Biso   1.000  C
  C70      1.0000 0.55640  0.90980  0.38780  Biso   1.000  C
  C71      1.0000 0.62360  0.90820  0.44540  Biso   1.000  C
  C72      1.0000 0.69840  0.98980  0.40320  Biso   1.000  C
  C73      1.0000 0.76340  0.98380  0.47460  Biso   1.000  C
  C74      1.0000 0.76280  0.06940  0.50290  Biso   1.000  C
  C75      1.0000 0.87010  0.97500  0.61080  Biso   1.000  C
  C76      1.0000 0.87570  0.88200  0.59050  Biso   1.000  C
  C77      1.0000 0.82180  0.88770  0.51990  Biso   1.000  C
  C78      1.0000 0.94020  0.78210  0.64150  Biso   1.000  C
  N1       1.0000 0.56990  0.62900  0.42960  Biso   1.000  N
  N2       1.0000 0.18770  0.11910  0.85630  Biso   1.000  N
  N3       1.0000 0.18570  0.93230  0.43050  Biso   1.000  N
  N4       1.0000 0.43010  0.37100  0.57040  Biso   1.000  N
  N5       1.0000 0.81230  0.88090  0.14370  Biso   1.000  N
  N6       1.0000 0.81430  0.06770  0.56950  Biso   1.000  N
  O1       1.0000 0.22050  0.64090  0.52800  Biso   1.000  O
  O2       1.0000 0.19950  0.64100  0.69090  Biso   1.000  O
  O3       1.0000 0.89190  0.54610  0.56120  Biso   1.000  O
  O4       1.0000 0.75760  0.43660  0.63480  Biso   1.000  O
  O5       1.0000 0.07070  0.46870  0.64560  Biso   1.000  O
  O6       1.0000 0.00830  0.32340  0.65090  Biso   1.000  O
  O7       1.0000 0.14290  0.53260  0.94960  Biso   1.000  O
  O8       1.0000 0.11180  0.36030  0.02320  Biso   1.000  O
  O9       1.0000 0.12100  0.86060  0.73520  Biso   1.000  O
  O10      1.0000 0.24090  0.75240  0.81280  Biso   1.000  O
  O11      1.0000 0.02550  0.28730  0.40360  Biso   1.000  O
  O12      1.0000 0.04660  0.22880  0.27050  Biso   1.000  O
  O13      1.0000 0.13100  0.78880  0.36750  Biso   1.000  O
  O14      1.0000 0.00150  0.53070  0.82930  Biso   1.000  O
  O15      1.0000 0.02230  0.76200  0.96860  Biso   1.000  O
  O16      1.0000 0.77950  0.35910  0.47200  Biso   1.000  O
  O17      1.0000 0.80050  0.35900  0.30910  Biso   1.000  O
  O18      1.0000 0.10810  0.45390  0.43880  Biso   1.000  O
  O19      1.0000 0.24240  0.56340  0.36520  Biso   1.000  O
  O20      1.0000 0.92930  0.53130  0.35440  Biso   1.000  O
  O21      1.0000 0.99170  0.67660  0.34910  Biso   1.000  O
  O22      1.0000 0.85710  0.46740  0.05040  Biso   1.000  O
  O23      1.0000 0.88820  0.63970  0.97680  Biso   1.000  O
  O24      1.0000 0.87900  0.13940  0.26480  Biso   1.000  O
  O25      1.0000 0.75910  0.24760  0.18720  Biso   1.000  O
  O26      1.0000 0.97450  0.71270  0.59640  Biso   1.000  O
  O27      1.0000 0.95340  0.77120  0.72950  Biso   1.000  O
  O28      1.0000 0.86900  0.21120  0.63250  Biso   1.000  O
  O29      1.0000 0.99850  0.46930  0.17070  Biso   1.000  O
  O30      1.0000 0.97770  0.23800  0.03140  Biso   1.000  O
