data_image0
_cell_length_a       7.6775
_cell_length_b       11.3959
_cell_length_c       11.3959
_cell_angle_alpha    90
_cell_angle_beta     90
_cell_angle_gamma    90

_symmetry_space_group_name_H-M    P 1
_symmetry_int_tables_number       1

loop_
  _symmetry_equiv_pos_as_xyz
  'x, y, z'

loop_
  _atom_site_label
  _atom_site_occupancy
  _atom_site_fract_x
  _atom_site_fract_y
  _atom_site_fract_z
  _atom_site_thermal_displace_type
  _atom_site_B_iso_or_equiv
  _atom_site_type_symbol
  Zn1      1.0000 0.00000  0.00000  0.00000  Biso   1.000  Zn
  Si1      1.0000 0.50000  0.00000  0.00000  Biso   1.000  Si
  H1       1.0000 0.74200  0.00000  0.79500  Biso   1.000  H
  H2       1.0000 0.73700  0.00000  0.58500  Biso   1.000  H
  H3       1.0000 0.74200  0.00000  0.20500  Biso   1.000  H
  H4       1.0000 0.73700  0.00000  0.41500  Biso   1.000  H
  H5       1.0000 0.74200  0.20500  0.00000  Biso   1.000  H
  H6       1.0000 0.73700  0.41500  0.00000  Biso   1.000  H
  H7       1.0000 0.74200  0.79500  0.00000  Biso   1.000  H
  H8       1.0000 0.73700  0.58500  0.00000  Biso   1.000  H
  H9       1.0000 0.25800  0.00000  0.79500  Biso   1.000  H
  H10      1.0000 0.26300  0.00000  0.58500  Biso   1.000  H
  H11      1.0000 0.25800  0.00000  0.20500  Biso   1.000  H
  H12      1.0000 0.26300  0.00000  0.41500  Biso   1.000  H
  H13      1.0000 0.25800  0.79500  0.00000  Biso   1.000  H
  H14      1.0000 0.26300  0.58500  0.00000  Biso   1.000  H
  H15      1.0000 0.25800  0.20500  0.00000  Biso   1.000  H
  H16      1.0000 0.26300  0.41500  0.00000  Biso   1.000  H
  C1       1.0000 0.00000  0.00000  0.56680  Biso   1.000  C
  C2       1.0000 0.00000  0.00000  0.43320  Biso   1.000  C
  C3       1.0000 0.00000  0.43320  0.00000  Biso   1.000  C
  C4       1.0000 0.00000  0.56680  0.00000  Biso   1.000  C
  C5       1.0000 0.85880  0.00000  0.75010  Biso   1.000  C
  C6       1.0000 0.85550  0.00000  0.62850  Biso   1.000  C
  C7       1.0000 0.85880  0.00000  0.24990  Biso   1.000  C
  C8       1.0000 0.85550  0.00000  0.37150  Biso   1.000  C
  C9       1.0000 0.85880  0.24990  0.00000  Biso   1.000  C
  C10      1.0000 0.85550  0.37150  0.00000  Biso   1.000  C
  C11      1.0000 0.85880  0.75010  0.00000  Biso   1.000  C
  C12      1.0000 0.85550  0.62850  0.00000  Biso   1.000  C
  C13      1.0000 0.14120  0.00000  0.75010  Biso   1.000  C
  C14      1.0000 0.14450  0.00000  0.62850  Biso   1.000  C
  C15      1.0000 0.14120  0.00000  0.24990  Biso   1.000  C
  C16      1.0000 0.14450  0.00000  0.37150  Biso   1.000  C
  C17      1.0000 0.14120  0.75010  0.00000  Biso   1.000  C
  C18      1.0000 0.14450  0.62850  0.00000  Biso   1.000  C
  C19      1.0000 0.14120  0.24990  0.00000  Biso   1.000  C
  C20      1.0000 0.14450  0.37150  0.00000  Biso   1.000  C
  N1       1.0000 0.00000  0.00000  0.81070  Biso   1.000  N
  N2       1.0000 0.00000  0.00000  0.18930  Biso   1.000  N
  N3       1.0000 0.00000  0.18930  0.00000  Biso   1.000  N
  N4       1.0000 0.00000  0.81070  0.00000  Biso   1.000  N
  F1       1.0000 0.72880  0.00000  0.00000  Biso   1.000  F
  F2       1.0000 0.27120  0.00000  0.00000  Biso   1.000  F
  F3       1.0000 0.50000  0.89700  0.89700  Biso   1.000  F
  F4       1.0000 0.50000  0.10300  0.10300  Biso   1.000  F
  F5       1.0000 0.50000  0.10300  0.89700  Biso   1.000  F
  F6       1.0000 0.50000  0.89700  0.10300  Biso   1.000  F
